# generated using pymatgen
data_TiO2
_symmetry_space_group_name_H-M   C2/m
_cell_length_a   12.30715401
_cell_length_b   3.76693666
_cell_length_c   6.61621258
_cell_angle_alpha   90.00000000
_cell_angle_beta   106.94506558
_cell_angle_gamma   90.00000000
_symmetry_Int_Tables_number   12
_chemical_formula_structural   TiO2
_chemical_formula_sum   'Ti8 O16'
_cell_volume   293.41263131
_cell_formula_units_Z   8
loop_
 _symmetry_equiv_pos_site_id
 _symmetry_equiv_pos_as_xyz
  1  'x, y, z'
  2  '-x, -y, -z'
  3  '-x, y, -z'
  4  'x, -y, z'
  5  'x+1/2, y+1/2, z'
  6  '-x+1/2, -y+1/2, -z'
  7  '-x+1/2, y+1/2, -z'
  8  'x+1/2, -y+1/2, z'
loop_
 _atom_site_type_symbol
 _atom_site_label
 _atom_site_symmetry_multiplicity
 _atom_site_fract_x
 _atom_site_fract_y
 _atom_site_fract_z
 _atom_site_occupancy
  Ti  Ti0  4  0.099929  0.000000  0.710398  1
  Ti  Ti1  4  0.195286  0.000000  0.283762  1
  O  O2  4  0.058352  0.000000  0.369979  1
  O  O3  4  0.132811  0.000000  0.004709  1
  O  O4  4  0.138068  0.500000  0.706603  1
  O  O5  4  0.236511  0.500000  0.347500  1
