data_image0
_cell_length_a       9.291
_cell_length_b       9.894
_cell_length_c       21.385
_cell_angle_alpha    90
_cell_angle_beta     90
_cell_angle_gamma    112.235

_symmetry_space_group_name_H-M    "P 1"
_symmetry_int_tables_number       1

loop_
  _symmetry_equiv_pos_as_xyz
  'x, y, z'

loop_
  _atom_site_label
  _atom_site_occupancy
  _atom_site_fract_x
  _atom_site_fract_y
  _atom_site_fract_z
  _atom_site_thermal_displace_type
  _atom_site_B_iso_or_equiv
  _atom_site_type_symbol
  Cu1      1.0000 0.88312  0.05125  0.10920  Biso   1.000  Cu
  Cu2      1.0000 0.38312  0.05125  0.39080  Biso   1.000  Cu
  Cu3      1.0000 0.11688  0.94875  0.89080  Biso   1.000  Cu
  Cu4      1.0000 0.61688  0.94875  0.60920  Biso   1.000  Cu
  N1       1.0000 0.83533  0.13014  0.02631  Biso   1.000  N
  N2       1.0000 0.33533  0.13014  0.47369  Biso   1.000  N
  N3       1.0000 0.16467  0.86986  0.97369  Biso   1.000  N
  N4       1.0000 0.66467  0.86986  0.52631  Biso   1.000  N
  C1       1.0000 0.95200  0.28100  0.02288  Biso   1.000  C
  C2       1.0000 0.45200  0.28100  0.47712  Biso   1.000  C
  C3       1.0000 0.04800  0.71900  0.97712  Biso   1.000  C
  C4       1.0000 0.54800  0.71900  0.52288  Biso   1.000  C
  H1       1.0000 0.92780  0.34310  0.05420  Biso   1.000  H
  H2       1.0000 0.42780  0.34310  0.44580  Biso   1.000  H
  H3       1.0000 0.07220  0.65690  0.94580  Biso   1.000  H
  H4       1.0000 0.57220  0.65690  0.55420  Biso   1.000  H
  H5       1.0000 0.95010  0.32230  0.98090  Biso   1.000  H
  H6       1.0000 0.45010  0.32230  0.51910  Biso   1.000  H
  H7       1.0000 0.04990  0.67770  0.01910  Biso   1.000  H
  H8       1.0000 0.54990  0.67770  0.48090  Biso   1.000  H
  C5       1.0000 0.11180  0.27830  0.03574  Biso   1.000  C
  C6       1.0000 0.61180  0.27830  0.46426  Biso   1.000  C
  C7       1.0000 0.88820  0.72170  0.96426  Biso   1.000  C
  C8       1.0000 0.38820  0.72170  0.53574  Biso   1.000  C
  H9       1.0000 0.13890  0.22200  0.00270  Biso   1.000  H
  H10      1.0000 0.63890  0.22200  0.49730  Biso   1.000  H
  H11      1.0000 0.86110  0.77800  0.99730  Biso   1.000  H
  H12      1.0000 0.36110  0.77800  0.50270  Biso   1.000  H
  H13      1.0000 0.19090  0.37910  0.03550  Biso   1.000  H
  H14      1.0000 0.69090  0.37910  0.46450  Biso   1.000  H
  H15      1.0000 0.80910  0.62090  0.96450  Biso   1.000  H
  H16      1.0000 0.30910  0.62090  0.53550  Biso   1.000  H
  N5       1.0000 0.11084  0.21036  0.09706  Biso   1.000  N
  N6       1.0000 0.61084  0.21036  0.40294  Biso   1.000  N
  N7       1.0000 0.88916  0.78964  0.90294  Biso   1.000  N
  N8       1.0000 0.38916  0.78964  0.59706  Biso   1.000  N
  C9       1.0000 0.22680  0.27280  0.13255  Biso   1.000  C
  C10      1.0000 0.72680  0.27280  0.36745  Biso   1.000  C
  C11      1.0000 0.77320  0.72720  0.86745  Biso   1.000  C
  C12      1.0000 0.27320  0.72720  0.63255  Biso   1.000  C
  H17      1.0000 0.30490  0.36100  0.11820  Biso   1.000  H
  H18      1.0000 0.80490  0.36100  0.38180  Biso   1.000  H
  H19      1.0000 0.69510  0.63900  0.88180  Biso   1.000  H
  H20      1.0000 0.19510  0.63900  0.61820  Biso   1.000  H
  C13      1.0000 0.24880  0.21770  0.19472  Biso   1.000  C
  C14      1.0000 0.74880  0.21770  0.30528  Biso   1.000  C
  C15      1.0000 0.75120  0.78230  0.80528  Biso   1.000  C
  C16      1.0000 0.25120  0.78230  0.69472  Biso   1.000  C
  C17      1.0000 0.16820  0.07530  0.21503  Biso   1.000  C
  C18      1.0000 0.66820  0.07530  0.28497  Biso   1.000  C
  C19      1.0000 0.83180  0.92470  0.78497  Biso   1.000  C
  C20      1.0000 0.33180  0.92470  0.71503  Biso   1.000  C
  H21      1.0000 0.09000  0.00840  0.18940  Biso   1.000  H
  H22      1.0000 0.59000  0.00840  0.31060  Biso   1.000  H
  H23      1.0000 0.91000  0.99160  0.81060  Biso   1.000  H
  H24      1.0000 0.41000  0.99160  0.68940  Biso   1.000  H
  C21      1.0000 0.20250  0.03160  0.27271  Biso   1.000  C
  C22      1.0000 0.70250  0.03160  0.22729  Biso   1.000  C
  C23      1.0000 0.79750  0.96840  0.72729  Biso   1.000  C
  C24      1.0000 0.29750  0.96840  0.77271  Biso   1.000  C
  H25      1.0000 0.14660  0.93390  0.28580  Biso   1.000  H
  H26      1.0000 0.64660  0.93390  0.21420  Biso   1.000  H
  H27      1.0000 0.85340  0.06610  0.71420  Biso   1.000  H
  H28      1.0000 0.35340  0.06610  0.78580  Biso   1.000  H
  N9       1.0000 0.31220  0.12192  0.31112  Biso   1.000  N
  N10      1.0000 0.81220  0.12192  0.18888  Biso   1.000  N
  N11      1.0000 0.68780  0.87808  0.68888  Biso   1.000  N
  N12      1.0000 0.18780  0.87808  0.81112  Biso   1.000  N
  C25      1.0000 0.38860  0.25970  0.29145  Biso   1.000  C
  C26      1.0000 0.88860  0.25970  0.20855  Biso   1.000  C
  C27      1.0000 0.61140  0.74030  0.70855  Biso   1.000  C
  C28      1.0000 0.11140  0.74030  0.79145  Biso   1.000  C
  H29      1.0000 0.46510  0.32510  0.31820  Biso   1.000  H
  H30      1.0000 0.96510  0.32510  0.18180  Biso   1.000  H
  H31      1.0000 0.53490  0.67490  0.68180  Biso   1.000  H
  H32      1.0000 0.03490  0.67490  0.81820  Biso   1.000  H
  C29      1.0000 0.36170  0.31120  0.23430  Biso   1.000  C
  C30      1.0000 0.86170  0.31120  0.26570  Biso   1.000  C
  C31      1.0000 0.63830  0.68880  0.76570  Biso   1.000  C
  C32      1.0000 0.13830  0.68880  0.73430  Biso   1.000  C
  H33      1.0000 0.41960  0.40920  0.22220  Biso   1.000  H
  H34      1.0000 0.91960  0.40920  0.27780  Biso   1.000  H
  H35      1.0000 0.58040  0.59080  0.77780  Biso   1.000  H
  H36      1.0000 0.08040  0.59080  0.72220  Biso   1.000  H
  C33      1.0000 0.74720  0.08500  0.97856  Biso   1.000  C
  C34      1.0000 0.24720  0.08500  0.52144  Biso   1.000  C
  C35      1.0000 0.25280  0.91500  0.02144  Biso   1.000  C
  C36      1.0000 0.75280  0.91500  0.47856  Biso   1.000  C
  H37      1.0000 0.76090  0.15180  0.94510  Biso   1.000  H
  H38      1.0000 0.26090  0.15180  0.55490  Biso   1.000  H
  H39      1.0000 0.23910  0.84820  0.05490  Biso   1.000  H
  H40      1.0000 0.73910  0.84820  0.44510  Biso   1.000  H
  C37      1.0000 0.62660  0.93800  0.97131  Biso   1.000  C
  C38      1.0000 0.12660  0.93800  0.52869  Biso   1.000  C
  C39      1.0000 0.37340  0.06200  0.02869  Biso   1.000  C
  C40      1.0000 0.87340  0.06200  0.47131  Biso   1.000  C
  C41      1.0000 0.58280  0.83120  0.01769  Biso   1.000  C
  C42      1.0000 0.08280  0.83120  0.48231  Biso   1.000  C
  C43      1.0000 0.41720  0.16880  0.98231  Biso   1.000  C
  C44      1.0000 0.91720  0.16880  0.51769  Biso   1.000  C
  H41      1.0000 0.62860  0.85160  0.05810  Biso   1.000  H
  H42      1.0000 0.12860  0.85160  0.44190  Biso   1.000  H
  H43      1.0000 0.37140  0.14840  0.94190  Biso   1.000  H
  H44      1.0000 0.87140  0.14840  0.55810  Biso   1.000  H
  C45      1.0000 0.47150  0.69490  0.00404  Biso   1.000  C
  C46      1.0000 0.97150  0.69490  0.49596  Biso   1.000  C
  C47      1.0000 0.52850  0.30510  0.99596  Biso   1.000  C
  C48      1.0000 0.02850  0.30510  0.50404  Biso   1.000  C
  H45      1.0000 0.44440  0.62250  0.03580  Biso   1.000  H
  H46      1.0000 0.94440  0.62250  0.46420  Biso   1.000  H
  H47      1.0000 0.55560  0.37750  0.96420  Biso   1.000  H
  H48      1.0000 0.05560  0.37750  0.53580  Biso   1.000  H
  N13      1.0000 0.39960  0.65910  0.94848  Biso   1.000  N
  N14      1.0000 0.89960  0.65910  0.55152  Biso   1.000  N
  N15      1.0000 0.60040  0.34090  0.05152  Biso   1.000  N
  N16      1.0000 0.10040  0.34090  0.44848  Biso   1.000  N
  C49      1.0000 0.43880  0.76400  0.90511  Biso   1.000  C
  C50      1.0000 0.93880  0.76400  0.59489  Biso   1.000  C
  C51      1.0000 0.56120  0.23600  0.09489  Biso   1.000  C
  C52      1.0000 0.06120  0.23600  0.40511  Biso   1.000  C
  H49      1.0000 0.38710  0.74200  0.86590  Biso   1.000  H
  H50      1.0000 0.88710  0.74200  0.63410  Biso   1.000  H
  H51      1.0000 0.61290  0.25800  0.13410  Biso   1.000  H
  H52      1.0000 0.11290  0.25800  0.36590  Biso   1.000  H
  C53      1.0000 0.55020  0.90300  0.91378  Biso   1.000  C
  C54      1.0000 0.05020  0.90300  0.58622  Biso   1.000  C
  C55      1.0000 0.44980  0.09700  0.08622  Biso   1.000  C
  C56      1.0000 0.94980  0.09700  0.41378  Biso   1.000  C
  H53      1.0000 0.57430  0.97330  0.88120  Biso   1.000  H
  H54      1.0000 0.07430  0.97330  0.61880  Biso   1.000  H
  H55      1.0000 0.42570  0.02670  0.11880  Biso   1.000  H
  H56      1.0000 0.92570  0.02670  0.38120  Biso   1.000  H
  N17      1.0000 0.86430  0.85090  0.12258  Biso   1.000  N
  N18      1.0000 0.36430  0.85090  0.37742  Biso   1.000  N
  N19      1.0000 0.13570  0.14910  0.87742  Biso   1.000  N
  N20      1.0000 0.63570  0.14910  0.62258  Biso   1.000  N
  C57      1.0000 0.85050  0.73450  0.13505  Biso   1.000  C
  C58      1.0000 0.35050  0.73450  0.36495  Biso   1.000  C
  C59      1.0000 0.14950  0.26550  0.86495  Biso   1.000  C
  C60      1.0000 0.64950  0.26550  0.63505  Biso   1.000  C
  C61      1.0000 0.83470  0.58640  0.14959  Biso   1.000  C
  C62      1.0000 0.33470  0.58640  0.35041  Biso   1.000  C
  C63      1.0000 0.16530  0.41360  0.85041  Biso   1.000  C
  C64      1.0000 0.66530  0.41360  0.64959  Biso   1.000  C
  H57      1.0000 0.78050  0.52130  0.11530  Biso   1.000  H
  H58      1.0000 0.28050  0.52130  0.38470  Biso   1.000  H
  H59      1.0000 0.21950  0.47870  0.88470  Biso   1.000  H
  H60      1.0000 0.71950  0.47870  0.61530  Biso   1.000  H
  H61      1.0000 0.77480  0.55460  0.18830  Biso   1.000  H
  H62      1.0000 0.27480  0.55460  0.31170  Biso   1.000  H
  H63      1.0000 0.22520  0.44540  0.81170  Biso   1.000  H
  H64      1.0000 0.72520  0.44540  0.68830  Biso   1.000  H
  H65      1.0000 0.93800  0.58310  0.15500  Biso   1.000  H
  H66      1.0000 0.43800  0.58310  0.34500  Biso   1.000  H
  H67      1.0000 0.06200  0.41690  0.84500  Biso   1.000  H
  H68      1.0000 0.56200  0.41690  0.65500  Biso   1.000  H
  Cl1      1.0000 0.27325  0.65356  0.16625  Biso   1.000  Cl
  Cl2      1.0000 0.77325  0.65356  0.33375  Biso   1.000  Cl
  Cl3      1.0000 0.72675  0.34644  0.83375  Biso   1.000  Cl
  Cl4      1.0000 0.22675  0.34644  0.66625  Biso   1.000  Cl
  O1       1.0000 0.19630  0.60160  0.10744  Biso   1.000  O
  O2       1.0000 0.69630  0.60160  0.39256  Biso   1.000  O
  O3       1.0000 0.80370  0.39840  0.89256  Biso   1.000  O
  O4       1.0000 0.30370  0.39840  0.60744  Biso   1.000  O
  O5       1.0000 0.18860  0.55510  0.21429  Biso   1.000  O
  O6       1.0000 0.68860  0.55510  0.28571  Biso   1.000  O
  O7       1.0000 0.81140  0.44490  0.78571  Biso   1.000  O
  O8       1.0000 0.31140  0.44490  0.71429  Biso   1.000  O
  O9       1.0000 0.42880  0.65590  0.16342  Biso   1.000  O
  O10      1.0000 0.92880  0.65590  0.33658  Biso   1.000  O
  O11      1.0000 0.57120  0.34410  0.83658  Biso   1.000  O
  O12      1.0000 0.07120  0.34410  0.66342  Biso   1.000  O
  O13      1.0000 0.27610  0.79650  0.17764  Biso   1.000  O
  O14      1.0000 0.77610  0.79650  0.32236  Biso   1.000  O
  O15      1.0000 0.72390  0.20350  0.82236  Biso   1.000  O
  O16      1.0000 0.22390  0.20350  0.67764  Biso   1.000  O
