data_image0
_cell_length_a       11.4029
_cell_length_b       12.9964
_cell_length_c       23.057
_cell_angle_alpha    90
_cell_angle_beta     90
_cell_angle_gamma    111.636

_symmetry_space_group_name_H-M    "P 1"
_symmetry_int_tables_number       1

loop_
  _symmetry_equiv_pos_as_xyz
  'x, y, z'

loop_
  _atom_site_label
  _atom_site_occupancy
  _atom_site_fract_x
  _atom_site_fract_y
  _atom_site_fract_z
  _atom_site_thermal_displace_type
  _atom_site_B_iso_or_equiv
  _atom_site_type_symbol
  Si1      1.0000 0.15980  0.48660  0.24850  Biso   1.000  Si
  Si2      1.0000 0.65980  0.98660  0.75150  Biso   1.000  Si
  C1       1.0000 0.10900  0.24100  0.57440  Biso   1.000  C
  C2       1.0000 0.60900  0.74100  0.42560  Biso   1.000  C
  C3       1.0000 0.63100  0.13800  0.11860  Biso   1.000  C
  C4       1.0000 0.13100  0.63800  0.88140  Biso   1.000  C
  C5       1.0000 0.70300  0.24100  0.08030  Biso   1.000  C
  C6       1.0000 0.20300  0.74100  0.91970  Biso   1.000  C
  C7       1.0000 0.97500  0.58800  0.52220  Biso   1.000  C
  C8       1.0000 0.47500  0.08800  0.47780  Biso   1.000  C
  C9       1.0000 0.65700  0.71600  0.07960  Biso   1.000  C
  C10      1.0000 0.15700  0.21600  0.92040  Biso   1.000  C
  H1       1.0000 0.59540  0.66040  0.09980  Biso   1.000  H
  H2       1.0000 0.09540  0.16040  0.90020  Biso   1.000  H
  C11      1.0000 0.18800  0.32100  0.61540  Biso   1.000  C
  C12      1.0000 0.68800  0.82100  0.38460  Biso   1.000  C
  C13      1.0000 0.97500  0.08500  0.49900  Biso   1.000  C
  C14      1.0000 0.47500  0.58500  0.50100  Biso   1.000  C
  H3       1.0000 0.92780  0.03390  0.47170  Biso   1.000  H
  H4       1.0000 0.42780  0.53390  0.52830  Biso   1.000  H
  C15      1.0000 0.14700  0.65900  0.59080  Biso   1.000  C
  C16      1.0000 0.64700  0.15900  0.40920  Biso   1.000  C
  H5       1.0000 0.19810  0.64700  0.61910  Biso   1.000  H
  H6       1.0000 0.69810  0.14700  0.38090  Biso   1.000  H
  C17      1.0000 0.95800  0.18300  0.50350  Biso   1.000  C
  C18      1.0000 0.45800  0.68300  0.49650  Biso   1.000  C
  H7       1.0000 0.89820  0.19650  0.48050  Biso   1.000  H
  H8       1.0000 0.39820  0.69650  0.51950  Biso   1.000  H
  C19      1.0000 0.13300  0.13800  0.57080  Biso   1.000  C
  C20      1.0000 0.63300  0.63800  0.42920  Biso   1.000  C
  H9       1.0000 0.19580  0.12620  0.59270  Biso   1.000  H
  H10      1.0000 0.69580  0.62620  0.40730  Biso   1.000  H
  C21      1.0000 0.15600  0.76000  0.57770  Biso   1.000  C
  C22      1.0000 0.65600  0.26000  0.42230  Biso   1.000  C
  H11      1.0000 0.21860  0.81930  0.59610  Biso   1.000  H
  H12      1.0000 0.71860  0.31930  0.40390  Biso   1.000  H
  C23      1.0000 0.12800  0.99300  0.23020  Biso   1.000  C
  C24      1.0000 0.62800  0.49300  0.76980  Biso   1.000  C
  H13      1.0000 0.07060  0.97570  0.19960  Biso   1.000  H
  H14      1.0000 0.57060  0.47570  0.80040  Biso   1.000  H
  C25      1.0000 0.84300  0.28200  0.00780  Biso   1.000  C
  C26      1.0000 0.34300  0.78200  0.99220  Biso   1.000  C
  H15      1.0000 0.89590  0.26470  0.98180  Biso   1.000  H
  H16      1.0000 0.39590  0.76470  0.01820  Biso   1.000  H
  C27      1.0000 0.82900  0.77700  0.02330  Biso   1.000  C
  C28      1.0000 0.32900  0.27700  0.97670  Biso   1.000  C
  H17      1.0000 0.89240  0.76610  0.00200  Biso   1.000  H
  H18      1.0000 0.39240  0.26610  0.99800  Biso   1.000  H
  C29      1.0000 0.70000  0.34400  0.07240  Biso   1.000  C
  C30      1.0000 0.20000  0.84400  0.92760  Biso   1.000  C
  H19      1.0000 0.65290  0.36580  0.09910  Biso   1.000  H
  H20      1.0000 0.15290  0.86580  0.90090  Biso   1.000  H
  C31      1.0000 0.83500  0.88000  0.03140  Biso   1.000  C
  C32      1.0000 0.33500  0.38000  0.96860  Biso   1.000  C
  C33      1.0000 0.93600  0.98100  0.00320  Biso   1.000  C
  C34      1.0000 0.43600  0.48100  0.99680  Biso   1.000  C
  C35      1.0000 0.88900  0.49200  0.49190  Biso   1.000  C
  C36      1.0000 0.38900  0.99200  0.50810  Biso   1.000  C
  C37      1.0000 0.12500  0.96400  0.38910  Biso   1.000  C
  C38      1.0000 0.62500  0.46400  0.61090  Biso   1.000  C
  C39      1.0000 0.29700  0.04200  0.31880  Biso   1.000  C
  C40      1.0000 0.79700  0.54200  0.68120  Biso   1.000  C
  H21      1.0000 0.35190  0.05750  0.35020  Biso   1.000  H
  H22      1.0000 0.85190  0.55750  0.64980  Biso   1.000  H
  C41      1.0000 0.26100  0.04700  0.22060  Biso   1.000  C
  C42      1.0000 0.76100  0.54700  0.77940  Biso   1.000  C
  H23      1.0000 0.29040  0.06550  0.18290  Biso   1.000  H
  H24      1.0000 0.79040  0.56550  0.81710  Biso   1.000  H
  C43      1.0000 0.66800  0.82900  0.08640  Biso   1.000  C
  C44      1.0000 0.16800  0.32900  0.91360  Biso   1.000  C
  H25      1.0000 0.60740  0.84550  0.10730  Biso   1.000  H
  H26      1.0000 0.10740  0.34550  0.89270  Biso   1.000  H
  C45      1.0000 0.99100  0.69800  0.51150  Biso   1.000  C
  C46      1.0000 0.49100  0.19800  0.48850  Biso   1.000  C
  H27      1.0000 0.93780  0.71250  0.48490  Biso   1.000  H
  H28      1.0000 0.43780  0.21250  0.51510  Biso   1.000  H
  C47      1.0000 0.17700  0.99400  0.32870  Biso   1.000  C
  C48      1.0000 0.67700  0.49400  0.67130  Biso   1.000  C
  C49      1.0000 0.83500  0.38800  0.00410  Biso   1.000  C
  C50      1.0000 0.33500  0.88800  0.99590  Biso   1.000  C
  H29      1.0000 0.88910  0.44160  0.97960  Biso   1.000  H
  H30      1.0000 0.38910  0.94160  0.02040  Biso   1.000  H
  N1       1.0000 0.75200  0.41100  0.03410  Biso   1.000  N
  N2       1.0000 0.25200  0.91100  0.96590  Biso   1.000  N
  N3       1.0000 0.03000  0.26200  0.54210  Biso   1.000  N
  N4       1.0000 0.53000  0.76200  0.45790  Biso   1.000  N
  N5       1.0000 0.05400  0.56400  0.56130  Biso   1.000  N
  N6       1.0000 0.55400  0.06400  0.43870  Biso   1.000  N
  N7       1.0000 0.07900  0.78300  0.53820  Biso   1.000  N
  N8       1.0000 0.57900  0.28300  0.46180  Biso   1.000  N
  N9       1.0000 0.08800  0.96700  0.28680  Biso   1.000  N
  N10      1.0000 0.58800  0.46700  0.71320  Biso   1.000  N
  N11      1.0000 0.75300  0.90100  0.06570  Biso   1.000  N
  N12      1.0000 0.25300  0.40100  0.93430  Biso   1.000  N
  N13      1.0000 0.78400  0.21200  0.04470  Biso   1.000  N
  N14      1.0000 0.28400  0.71200  0.95530  Biso   1.000  N
  N15      1.0000 0.73600  0.69000  0.04420  Biso   1.000  N
  N16      1.0000 0.23600  0.19000  0.95580  Biso   1.000  N
  N17      1.0000 0.34800  0.07300  0.26520  Biso   1.000  N
  N18      1.0000 0.84800  0.57300  0.73480  Biso   1.000  N
  N19      1.0000 0.05700  0.05900  0.53240  Biso   1.000  N
  N20      1.0000 0.55700  0.55900  0.46760  Biso   1.000  N
  O1       1.0000 0.19430  0.23630  0.33140  Biso   1.000  O
  O2       1.0000 0.69430  0.73630  0.66860  Biso   1.000  O
  O3       1.0000 0.32700  0.37200  0.75690  Biso   1.000  O
  O4       1.0000 0.82700  0.87200  0.24310  Biso   1.000  O
  O5       1.0000 0.30820  0.41920  0.39300  Biso   1.000  O
  O6       1.0000 0.80820  0.91920  0.60700  Biso   1.000  O
  O7       1.0000 0.66900  0.96800  0.23290  Biso   1.000  O
  O8       1.0000 0.16900  0.46800  0.76710  Biso   1.000  O
  O9       1.0000 0.88700  0.29400  0.19700  Biso   1.000  O
  O10      1.0000 0.38700  0.79400  0.80300  Biso   1.000  O
  O11      1.0000 0.75700  0.57800  0.91810  Biso   1.000  O
  O12      1.0000 0.25700  0.07800  0.08190  Biso   1.000  O
  O13      1.0000 0.17260  0.23880  0.15220  Biso   1.000  O
  O14      1.0000 0.67260  0.73880  0.84780  Biso   1.000  O
  O15      1.0000 0.02800  0.20400  0.24660  Biso   1.000  O
  O16      1.0000 0.52800  0.70400  0.75340  Biso   1.000  O
  O17      1.0000 0.18900  0.97820  0.43120  Biso   1.000  O
  O18      1.0000 0.68900  0.47820  0.56880  Biso   1.000  O
  O19      1.0000 0.00640  0.52940  0.12880  Biso   1.000  O
  O20      1.0000 0.50640  0.02940  0.87120  Biso   1.000  O
  O21      1.0000 0.18900  0.48800  0.47510  Biso   1.000  O
  O22      1.0000 0.68900  0.98800  0.52490  Biso   1.000  O
  O23      1.0000 0.04310  0.52410  0.38370  Biso   1.000  O
  O24      1.0000 0.54310  0.02410  0.61630  Biso   1.000  O
  O25      1.0000 0.67400  0.28100  0.26420  Biso   1.000  O
  O26      1.0000 0.17400  0.78100  0.73580  Biso   1.000  O
  O27      1.0000 0.89800  0.29300  0.31220  Biso   1.000  O
  O28      1.0000 0.39800  0.79300  0.68780  Biso   1.000  O
  O29      1.0000 0.45600  0.71600  0.18820  Biso   1.000  O
  O30      1.0000 0.95600  0.21600  0.81180  Biso   1.000  O
  O31      1.0000 0.47450  0.71700  0.29860  Biso   1.000  O
  O32      1.0000 0.97450  0.21700  0.70140  Biso   1.000  O
  O33      1.0000 0.38450  0.85270  0.36630  Biso   1.000  O
  O34      1.0000 0.88450  0.35270  0.63370  Biso   1.000  O
  O35      1.0000 0.35900  0.85500  0.13360  Biso   1.000  O
  O36      1.0000 0.85900  0.35500  0.86640  Biso   1.000  O
  O37      1.0000 0.42110  0.31310  0.12670  Biso   1.000  O
  O38      1.0000 0.92110  0.81310  0.87330  Biso   1.000  O
  O39      1.0000 0.29240  0.61760  0.37610  Biso   1.000  O
  O40      1.0000 0.79240  0.11760  0.62390  Biso   1.000  O
  O41      1.0000 0.65150  0.05650  0.11860  Biso   1.000  O
  O42      1.0000 0.15150  0.55650  0.88140  Biso   1.000  O
  O43      1.0000 0.02410  0.50910  0.25390  Biso   1.000  O
  O44      1.0000 0.52410  0.00910  0.74610  Biso   1.000  O
  O45      1.0000 0.24900  0.62300  0.12080  Biso   1.000  O
  O46      1.0000 0.74900  0.12300  0.87920  Biso   1.000  O
  O47      1.0000 0.27420  0.61070  0.24860  Biso   1.000  O
  O48      1.0000 0.77420  0.11070  0.75140  Biso   1.000  O
  O49      1.0000 0.91800  0.67400  0.37620  Biso   1.000  O
  O50      1.0000 0.41800  0.17400  0.62380  Biso   1.000  O
  O51      1.0000 0.82800  0.46800  0.31870  Biso   1.000  O
  O52      1.0000 0.32800  0.96800  0.68130  Biso   1.000  O
  O53      1.0000 0.06080  0.32680  0.39800  Biso   1.000  O
  O54      1.0000 0.56080  0.82680  0.60200  Biso   1.000  O
  O55      1.0000 0.44380  0.50710  0.29630  Biso   1.000  O
  O56      1.0000 0.94380  0.00710  0.70370  Biso   1.000  O
  O57      1.0000 0.32840  0.32380  0.23910  Biso   1.000  O
  O58      1.0000 0.82840  0.82380  0.76090  Biso   1.000  O
  O59      1.0000 0.45130  0.30610  0.34340  Biso   1.000  O
  O60      1.0000 0.95130  0.80610  0.65660  Biso   1.000  O
  O61      1.0000 0.17240  0.41970  0.30710  Biso   1.000  O
  O62      1.0000 0.67240  0.91970  0.69290  Biso   1.000  O
  O63      1.0000 0.15610  0.42150  0.18970  Biso   1.000  O
  O64      1.0000 0.65610  0.92150  0.81030  Biso   1.000  O
  O65      1.0000 0.81700  0.47700  0.20270  Biso   1.000  O
  O66      1.0000 0.31700  0.97700  0.79730  Biso   1.000  O
  O67      1.0000 0.64800  0.66800  0.23610  Biso   1.000  O
  O68      1.0000 0.14800  0.16800  0.76390  Biso   1.000  O
  O69      1.0000 0.14700  0.70680  0.32370  Biso   1.000  O
  O70      1.0000 0.64700  0.20680  0.67630  Biso   1.000  O
  O71      1.0000 0.12330  0.70400  0.18370  Biso   1.000  O
  O72      1.0000 0.62330  0.20400  0.81630  Biso   1.000  O
  O73      1.0000 0.93300  0.65980  0.26020  Biso   1.000  O
  O74      1.0000 0.43300  0.15980  0.73980  Biso   1.000  O
  O75      1.0000 0.88700  0.67500  0.14280  Biso   1.000  O
  O76      1.0000 0.38700  0.17500  0.85720  Biso   1.000  O
  O77      1.0000 0.27150  0.42550  0.09960  Biso   1.000  O
  O78      1.0000 0.77150  0.92550  0.90040  Biso   1.000  O
  O79      1.0000 0.43590  0.51360  0.18240  Biso   1.000  O
  O80      1.0000 0.93590  0.01360  0.81760  Biso   1.000  O
  O81      1.0000 0.92100  0.12100  0.14530  Biso   1.000  O
  O82      1.0000 0.42100  0.62100  0.85470  Biso   1.000  O
  O83      1.0000 0.02570  0.33100  0.10690  Biso   1.000  O
  O84      1.0000 0.52570  0.83100  0.89310  Biso   1.000  O
  O85      1.0000 0.95100  0.11200  0.35840  Biso   1.000  O
  O86      1.0000 0.45100  0.61200  0.64160  Biso   1.000  O
  O87      1.0000 0.12400  0.49800  0.02610  Biso   1.000  O
  O88      1.0000 0.62400  0.99800  0.97390  Biso   1.000  O
  O89      1.0000 0.33200  0.81100  0.24980  Biso   1.000  O
  O90      1.0000 0.83200  0.31100  0.75020  Biso   1.000  O
  O91      1.0000 0.55500  0.15500  0.15650  Biso   1.000  O
  O92      1.0000 0.05500  0.65500  0.84350  Biso   1.000  O
  O93      1.0000 0.26310  0.30490  0.64750  Biso   1.000  O
  O94      1.0000 0.76310  0.80490  0.35250  Biso   1.000  O
  O95      1.0000 0.17400  0.42000  0.60890  Biso   1.000  O
  O96      1.0000 0.67400  0.92000  0.39110  Biso   1.000  O
  O97      1.0000 0.90040  0.39930  0.50190  Biso   1.000  O
  O98      1.0000 0.40040  0.89930  0.49810  Biso   1.000  O
  O99      1.0000 0.92100  0.07000  0.01090  Biso   1.000  O
  O100     1.0000 0.42100  0.57000  0.98910  Biso   1.000  O
  O101     1.0000 0.02300  0.96400  0.97860  Biso   1.000  O
  O102     1.0000 0.52300  0.46400  0.02140  Biso   1.000  O
  O103     1.0000 0.81020  0.50660  0.45890  Biso   1.000  O
  O104     1.0000 0.31020  0.00660  0.54110  Biso   1.000  O
  O105     1.0000 0.99760  0.91470  0.39410  Biso   1.000  O
  O106     1.0000 0.49760  0.41470  0.60590  Biso   1.000  O
  W1       1.0000 0.34928  0.36162  0.31928  Biso   1.000  W
  W2       1.0000 0.84928  0.86162  0.68072  Biso   1.000  W
  W3       1.0000 0.00925  0.24140  0.17023  Biso   1.000  W
  W4       1.0000 0.50925  0.74140  0.82977  Biso   1.000  W
  W5       1.0000 0.32917  0.36704  0.16200  Biso   1.000  W
  W6       1.0000 0.82917  0.86704  0.83800  Biso   1.000  W
  W7       1.0000 0.02752  0.23759  0.32741  Biso   1.000  W
  W8       1.0000 0.52752  0.73759  0.67259  Biso   1.000  W
  W9       1.0000 0.14038  0.48449  0.09611  Biso   1.000  W
  W10      1.0000 0.64038  0.98449  0.90389  Biso   1.000  W
  W11      1.0000 0.18020  0.47761  0.40084  Biso   1.000  W
  W12      1.0000 0.68020  0.97761  0.59916  Biso   1.000  W
  W13      1.0000 0.82888  0.36512  0.25757  Biso   1.000  W
  W14      1.0000 0.32888  0.86512  0.74243  Biso   1.000  W
  W15      1.0000 0.49107  0.62182  0.24092  Biso   1.000  W
  W16      1.0000 0.99107  0.12182  0.75908  Biso   1.000  W
  W17      1.0000 0.32032  0.73657  0.32233  Biso   1.000  W
  W18      1.0000 0.82032  0.23657  0.67767  Biso   1.000  W
  W19      1.0000 0.30206  0.73991  0.17487  Biso   1.000  W
  W20      1.0000 0.80206  0.23991  0.82513  Biso   1.000  W
  W21      1.0000 0.95961  0.60704  0.18338  Biso   1.000  W
  W22      1.0000 0.45961  0.10704  0.81662  Biso   1.000  W
  W23      1.0000 0.97952  0.60439  0.33118  Biso   1.000  W
  W24      1.0000 0.47952  0.10439  0.66882  Biso   1.000  W
  Cu1      1.0000 0.03090  0.40950  0.55691  Biso   1.000  Cu
  Cu2      1.0000 0.53090  0.90950  0.44309  Biso   1.000  Cu
  Cu3      1.0000 0.77900  0.05990  0.06132  Biso   1.000  Cu
  Cu4      1.0000 0.27900  0.55990  0.93868  Biso   1.000  Cu
  Cu5      1.0000 0.71810  0.54120  0.02712  Biso   1.000  Cu
  Cu6      1.0000 0.21810  0.04120  0.97288  Biso   1.000  Cu
  Cu7      1.0000 0.10760  0.93420  0.51635  Biso   1.000  Cu
  Cu8      1.0000 0.60760  0.43420  0.48365  Biso   1.000  Cu
  Cu9      1.0000 0.41550  0.39950  0.68109  Biso   1.000  Cu
  Cu10     1.0000 0.91550  0.89950  0.31891  Biso   1.000  Cu
  Cu11     1.0000 0.51320  0.16850  0.24750  Biso   1.000  Cu
  Cu12     1.0000 0.01320  0.66850  0.75250  Biso   1.000  Cu
