data_image0
_cell_length_a       11.427
_cell_length_b       12.0736
_cell_length_c       27.712
_cell_angle_alpha    90
_cell_angle_beta     90
_cell_angle_gamma    104.157

_symmetry_space_group_name_H-M    "P 1"
_symmetry_int_tables_number       1

loop_
  _symmetry_equiv_pos_as_xyz
  'x, y, z'

loop_
  _atom_site_label
  _atom_site_occupancy
  _atom_site_fract_x
  _atom_site_fract_y
  _atom_site_fract_z
  _atom_site_thermal_displace_type
  _atom_site_B_iso_or_equiv
  _atom_site_type_symbol
  Cu1      1.0000 0.00000  0.50000  0.85788  Biso   1.000  Cu
  Cu2      1.0000 0.50000  0.00000  0.35788  Biso   1.000  Cu
  Cu3      1.0000 0.00000  0.50000  0.14212  Biso   1.000  Cu
  Cu4      1.0000 0.50000  0.00000  0.64212  Biso   1.000  Cu
  N1       1.0000 0.98300  0.65000  0.85690  Biso   1.000  N
  N2       1.0000 0.01700  0.35000  0.85690  Biso   1.000  N
  N3       1.0000 0.48300  0.15000  0.35690  Biso   1.000  N
  N4       1.0000 0.51700  0.85000  0.35690  Biso   1.000  N
  N5       1.0000 0.01700  0.35000  0.14310  Biso   1.000  N
  N6       1.0000 0.98300  0.65000  0.14310  Biso   1.000  N
  N7       1.0000 0.51700  0.85000  0.64310  Biso   1.000  N
  N8       1.0000 0.48300  0.15000  0.64310  Biso   1.000  N
  C1       1.0000 0.97950  0.72320  0.89250  Biso   1.000  C
  C2       1.0000 0.02050  0.27680  0.89250  Biso   1.000  C
  C3       1.0000 0.47950  0.22320  0.39250  Biso   1.000  C
  C4       1.0000 0.52050  0.77680  0.39250  Biso   1.000  C
  C5       1.0000 0.02050  0.27680  0.10750  Biso   1.000  C
  C6       1.0000 0.97950  0.72320  0.10750  Biso   1.000  C
  C7       1.0000 0.52050  0.77680  0.60750  Biso   1.000  C
  C8       1.0000 0.47950  0.22320  0.60750  Biso   1.000  C
  H1       1.0000 0.99360  0.71060  0.92570  Biso   1.000  H
  H2       1.0000 0.00640  0.28940  0.92570  Biso   1.000  H
  H3       1.0000 0.49360  0.21060  0.42570  Biso   1.000  H
  H4       1.0000 0.50640  0.78940  0.42570  Biso   1.000  H
  H5       1.0000 0.00640  0.28940  0.07430  Biso   1.000  H
  H6       1.0000 0.99360  0.71060  0.07430  Biso   1.000  H
  H7       1.0000 0.50640  0.78940  0.57430  Biso   1.000  H
  H8       1.0000 0.49360  0.21060  0.57430  Biso   1.000  H
  C9       1.0000 0.95290  0.81790  0.87440  Biso   1.000  C
  C10      1.0000 0.04710  0.18210  0.87440  Biso   1.000  C
  C11      1.0000 0.45290  0.31790  0.37440  Biso   1.000  C
  C12      1.0000 0.54710  0.68210  0.37440  Biso   1.000  C
  C13      1.0000 0.04710  0.18210  0.12560  Biso   1.000  C
  C14      1.0000 0.95290  0.81790  0.12560  Biso   1.000  C
  C15      1.0000 0.54710  0.68210  0.62560  Biso   1.000  C
  C16      1.0000 0.45290  0.31790  0.62560  Biso   1.000  C
  H9       1.0000 0.94370  0.88160  0.89290  Biso   1.000  H
  H10      1.0000 0.05630  0.11840  0.89290  Biso   1.000  H
  H11      1.0000 0.44370  0.38160  0.39290  Biso   1.000  H
  H12      1.0000 0.55630  0.61840  0.39290  Biso   1.000  H
  H13      1.0000 0.05630  0.11840  0.10710  Biso   1.000  H
  H14      1.0000 0.94370  0.88160  0.10710  Biso   1.000  H
  H15      1.0000 0.55630  0.61840  0.60710  Biso   1.000  H
  H16      1.0000 0.44370  0.38160  0.60710  Biso   1.000  H
  N9       1.0000 0.94150  0.80810  0.82520  Biso   1.000  N
  N10      1.0000 0.05850  0.19190  0.82520  Biso   1.000  N
  N11      1.0000 0.44150  0.30810  0.32520  Biso   1.000  N
  N12      1.0000 0.55850  0.69190  0.32520  Biso   1.000  N
  N13      1.0000 0.05850  0.19190  0.17480  Biso   1.000  N
  N14      1.0000 0.94150  0.80810  0.17480  Biso   1.000  N
  N15      1.0000 0.55850  0.69190  0.67480  Biso   1.000  N
  N16      1.0000 0.44150  0.30810  0.67480  Biso   1.000  N
  C17      1.0000 0.95840  0.70260  0.81550  Biso   1.000  C
  C18      1.0000 0.04160  0.29740  0.81550  Biso   1.000  C
  C19      1.0000 0.45840  0.20260  0.31550  Biso   1.000  C
  C20      1.0000 0.54160  0.79740  0.31550  Biso   1.000  C
  C21      1.0000 0.04160  0.29740  0.18450  Biso   1.000  C
  C22      1.0000 0.95840  0.70260  0.18450  Biso   1.000  C
  C23      1.0000 0.54160  0.79740  0.68450  Biso   1.000  C
  C24      1.0000 0.45840  0.20260  0.68450  Biso   1.000  C
  C25      1.0000 0.95390  0.65220  0.76670  Biso   1.000  C
  C26      1.0000 0.04610  0.34780  0.76670  Biso   1.000  C
  C27      1.0000 0.45390  0.15220  0.26670  Biso   1.000  C
  C28      1.0000 0.54610  0.84780  0.26670  Biso   1.000  C
  C29      1.0000 0.04610  0.34780  0.23330  Biso   1.000  C
  C30      1.0000 0.95390  0.65220  0.23330  Biso   1.000  C
  C31      1.0000 0.54610  0.84780  0.73330  Biso   1.000  C
  C32      1.0000 0.45390  0.15220  0.73330  Biso   1.000  C
  H17      1.0000 0.93440  0.70530  0.74300  Biso   1.000  H
  H18      1.0000 0.06560  0.29470  0.74300  Biso   1.000  H
  H19      1.0000 0.43440  0.20530  0.24300  Biso   1.000  H
  H20      1.0000 0.56560  0.79470  0.24300  Biso   1.000  H
  H21      1.0000 0.06560  0.29470  0.25700  Biso   1.000  H
  H22      1.0000 0.93440  0.70530  0.25700  Biso   1.000  H
  H23      1.0000 0.56560  0.79470  0.75700  Biso   1.000  H
  H24      1.0000 0.43440  0.20530  0.75700  Biso   1.000  H
  H25      1.0000 0.89190  0.58000  0.76580  Biso   1.000  H
  H26      1.0000 0.10810  0.42000  0.76580  Biso   1.000  H
  H27      1.0000 0.39190  0.08000  0.26580  Biso   1.000  H
  H28      1.0000 0.60810  0.92000  0.26580  Biso   1.000  H
  H29      1.0000 0.10810  0.42000  0.23420  Biso   1.000  H
  H30      1.0000 0.89190  0.58000  0.23420  Biso   1.000  H
  H31      1.0000 0.60810  0.92000  0.73420  Biso   1.000  H
  H32      1.0000 0.39190  0.08000  0.73420  Biso   1.000  H
  H33      1.0000 0.03270  0.63800  0.75890  Biso   1.000  H
  H34      1.0000 0.96730  0.36200  0.75890  Biso   1.000  H
  H35      1.0000 0.53270  0.13800  0.25890  Biso   1.000  H
  H36      1.0000 0.46730  0.86200  0.25890  Biso   1.000  H
  H37      1.0000 0.96730  0.36200  0.24110  Biso   1.000  H
  H38      1.0000 0.03270  0.63800  0.24110  Biso   1.000  H
  H39      1.0000 0.46730  0.86200  0.74110  Biso   1.000  H
  H40      1.0000 0.53270  0.13800  0.74110  Biso   1.000  H
  Cu5      1.0000 0.89870  0.90554  0.78149  Biso   1.000  Cu
  Cu6      1.0000 0.10130  0.09446  0.78149  Biso   1.000  Cu
  Cu7      1.0000 0.39870  0.40554  0.28149  Biso   1.000  Cu
  Cu8      1.0000 0.60130  0.59446  0.28149  Biso   1.000  Cu
  Cu9      1.0000 0.10130  0.09446  0.21851  Biso   1.000  Cu
  Cu10     1.0000 0.89870  0.90554  0.21851  Biso   1.000  Cu
  Cu11     1.0000 0.60130  0.59446  0.71851  Biso   1.000  Cu
  Cu12     1.0000 0.39870  0.40554  0.71851  Biso   1.000  Cu
  N17      1.0000 0.84460  0.99610  0.73640  Biso   1.000  N
  N18      1.0000 0.15540  0.00390  0.73640  Biso   1.000  N
  N19      1.0000 0.34460  0.49610  0.23640  Biso   1.000  N
  N20      1.0000 0.65540  0.50390  0.23640  Biso   1.000  N
  N21      1.0000 0.15540  0.00390  0.26360  Biso   1.000  N
  N22      1.0000 0.84460  0.99610  0.26360  Biso   1.000  N
  N23      1.0000 0.65540  0.50390  0.76360  Biso   1.000  N
  N24      1.0000 0.34460  0.49610  0.76360  Biso   1.000  N
  C33      1.0000 0.80760  0.09550  0.74660  Biso   1.000  C
  C34      1.0000 0.19240  0.90450  0.74660  Biso   1.000  C
  C35      1.0000 0.30760  0.59550  0.24660  Biso   1.000  C
  C36      1.0000 0.69240  0.40450  0.24660  Biso   1.000  C
  C37      1.0000 0.19240  0.90450  0.25340  Biso   1.000  C
  C38      1.0000 0.80760  0.09550  0.25340  Biso   1.000  C
  C39      1.0000 0.69240  0.40450  0.75340  Biso   1.000  C
  C40      1.0000 0.30760  0.59550  0.75340  Biso   1.000  C
  H41      1.0000 0.80780  0.12950  0.77750  Biso   1.000  H
  H42      1.0000 0.19220  0.87050  0.77750  Biso   1.000  H
  H43      1.0000 0.30780  0.62950  0.27750  Biso   1.000  H
  H44      1.0000 0.69220  0.37050  0.27750  Biso   1.000  H
  H45      1.0000 0.19220  0.87050  0.22250  Biso   1.000  H
  H46      1.0000 0.80780  0.12950  0.22250  Biso   1.000  H
  H47      1.0000 0.69220  0.37050  0.72250  Biso   1.000  H
  H48      1.0000 0.30780  0.62950  0.72250  Biso   1.000  H
  C41      1.0000 0.77220  0.13490  0.70560  Biso   1.000  C
  C42      1.0000 0.22780  0.86510  0.70560  Biso   1.000  C
  C43      1.0000 0.27220  0.63490  0.20560  Biso   1.000  C
  C44      1.0000 0.72780  0.36510  0.20560  Biso   1.000  C
  C45      1.0000 0.22780  0.86510  0.29440  Biso   1.000  C
  C46      1.0000 0.77220  0.13490  0.29440  Biso   1.000  C
  C47      1.0000 0.72780  0.36510  0.79440  Biso   1.000  C
  C48      1.0000 0.27220  0.63490  0.79440  Biso   1.000  C
  H49      1.0000 0.74230  0.20140  0.70240  Biso   1.000  H
  H50      1.0000 0.25770  0.79860  0.70240  Biso   1.000  H
  H51      1.0000 0.24230  0.70140  0.20240  Biso   1.000  H
  H52      1.0000 0.75770  0.29860  0.20240  Biso   1.000  H
  H53      1.0000 0.25770  0.79860  0.29760  Biso   1.000  H
  H54      1.0000 0.74230  0.20140  0.29760  Biso   1.000  H
  H55      1.0000 0.75770  0.29860  0.79760  Biso   1.000  H
  H56      1.0000 0.24230  0.70140  0.79760  Biso   1.000  H
  N25      1.0000 0.78600  0.06230  0.66790  Biso   1.000  N
  N26      1.0000 0.21400  0.93770  0.66790  Biso   1.000  N
  N27      1.0000 0.28600  0.56230  0.16790  Biso   1.000  N
  N28      1.0000 0.71400  0.43770  0.16790  Biso   1.000  N
  N29      1.0000 0.21400  0.93770  0.33210  Biso   1.000  N
  N30      1.0000 0.78600  0.06230  0.33210  Biso   1.000  N
  N31      1.0000 0.71400  0.43770  0.83210  Biso   1.000  N
  N32      1.0000 0.28600  0.56230  0.83210  Biso   1.000  N
  C49      1.0000 0.82870  0.97960  0.68850  Biso   1.000  C
  C50      1.0000 0.17130  0.02040  0.68850  Biso   1.000  C
  C51      1.0000 0.32870  0.47960  0.18850  Biso   1.000  C
  C52      1.0000 0.67130  0.52040  0.18850  Biso   1.000  C
  C53      1.0000 0.17130  0.02040  0.31150  Biso   1.000  C
  C54      1.0000 0.82870  0.97960  0.31150  Biso   1.000  C
  C55      1.0000 0.67130  0.52040  0.81150  Biso   1.000  C
  C56      1.0000 0.32870  0.47960  0.81150  Biso   1.000  C
  C57      1.0000 0.85850  0.88430  0.66170  Biso   1.000  C
  C58      1.0000 0.14150  0.11570  0.66170  Biso   1.000  C
  C59      1.0000 0.35850  0.38430  0.16170  Biso   1.000  C
  C60      1.0000 0.64150  0.61570  0.16170  Biso   1.000  C
  C61      1.0000 0.14150  0.11570  0.33830  Biso   1.000  C
  C62      1.0000 0.85850  0.88430  0.33830  Biso   1.000  C
  C63      1.0000 0.64150  0.61570  0.83830  Biso   1.000  C
  C64      1.0000 0.35850  0.38430  0.83830  Biso   1.000  C
  H57      1.0000 0.83960  0.89020  0.62750  Biso   1.000  H
  H58      1.0000 0.16040  0.10980  0.62750  Biso   1.000  H
  H59      1.0000 0.33960  0.39020  0.12750  Biso   1.000  H
  H60      1.0000 0.66040  0.60980  0.12750  Biso   1.000  H
  H61      1.0000 0.16040  0.10980  0.37250  Biso   1.000  H
  H62      1.0000 0.83960  0.89020  0.37250  Biso   1.000  H
  H63      1.0000 0.66040  0.60980  0.87250  Biso   1.000  H
  H64      1.0000 0.33960  0.39020  0.87250  Biso   1.000  H
  H65      1.0000 0.81100  0.81150  0.67460  Biso   1.000  H
  H66      1.0000 0.18900  0.18850  0.67460  Biso   1.000  H
  H67      1.0000 0.31100  0.31150  0.17460  Biso   1.000  H
  H68      1.0000 0.68900  0.68850  0.17460  Biso   1.000  H
  H69      1.0000 0.18900  0.18850  0.32540  Biso   1.000  H
  H70      1.0000 0.81100  0.81150  0.32540  Biso   1.000  H
  H71      1.0000 0.68900  0.68850  0.82540  Biso   1.000  H
  H72      1.0000 0.31100  0.31150  0.82540  Biso   1.000  H
  H73      1.0000 0.94480  0.88810  0.66540  Biso   1.000  H
  H74      1.0000 0.05520  0.11190  0.66540  Biso   1.000  H
  H75      1.0000 0.44480  0.38810  0.16540  Biso   1.000  H
  H76      1.0000 0.55520  0.61190  0.16540  Biso   1.000  H
  H77      1.0000 0.05520  0.11190  0.33460  Biso   1.000  H
  H78      1.0000 0.94480  0.88810  0.33460  Biso   1.000  H
  H79      1.0000 0.55520  0.61190  0.83460  Biso   1.000  H
  H80      1.0000 0.44480  0.38810  0.83460  Biso   1.000  H
  C65      1.0000 0.75180  0.07370  0.50000  Biso   1.000  C
  C66      1.0000 0.24820  0.92630  0.50000  Biso   1.000  C
  C67      1.0000 0.25180  0.57370  0.00000  Biso   1.000  C
  C68      1.0000 0.74820  0.42630  0.00000  Biso   1.000  C
  Cu13     1.0000 0.77030  0.10030  0.60420  Biso   1.000  Cu
  Cu14     1.0000 0.22970  0.89970  0.60420  Biso   1.000  Cu
  Cu15     1.0000 0.27030  0.60030  0.10420  Biso   1.000  Cu
  Cu16     1.0000 0.72970  0.39970  0.10420  Biso   1.000  Cu
  Cu17     1.0000 0.22970  0.89970  0.39580  Biso   1.000  Cu
  Cu18     1.0000 0.77030  0.10030  0.39580  Biso   1.000  Cu
  Cu19     1.0000 0.72970  0.39970  0.89580  Biso   1.000  Cu
  Cu20     1.0000 0.27030  0.60030  0.89580  Biso   1.000  Cu
  N33      1.0000 0.75800  0.13900  0.53990  Biso   1.000  N
  N34      1.0000 0.24200  0.86100  0.53990  Biso   1.000  N
  N35      1.0000 0.25800  0.63900  0.03990  Biso   1.000  N
  N36      1.0000 0.74200  0.36100  0.03990  Biso   1.000  N
  N37      1.0000 0.24200  0.86100  0.46010  Biso   1.000  N
  N38      1.0000 0.75800  0.13900  0.46010  Biso   1.000  N
  N39      1.0000 0.74200  0.36100  0.96010  Biso   1.000  N
  N40      1.0000 0.25800  0.63900  0.96010  Biso   1.000  N
  C69      1.0000 0.74700  0.24900  0.52550  Biso   1.000  C
  C70      1.0000 0.25300  0.75100  0.52550  Biso   1.000  C
  C71      1.0000 0.24700  0.74900  0.02550  Biso   1.000  C
  C72      1.0000 0.75300  0.25100  0.02550  Biso   1.000  C
  C73      1.0000 0.25300  0.75100  0.47450  Biso   1.000  C
  C74      1.0000 0.74700  0.24900  0.47450  Biso   1.000  C
  C75      1.0000 0.75300  0.25100  0.97450  Biso   1.000  C
  C76      1.0000 0.24700  0.74900  0.97450  Biso   1.000  C
  C77      1.0000 0.75970  0.95370  0.50000  Biso   1.000  C
  C78      1.0000 0.24030  0.04630  0.50000  Biso   1.000  C
  C79      1.0000 0.25970  0.45370  0.00000  Biso   1.000  C
  C80      1.0000 0.74030  0.54630  0.00000  Biso   1.000  C
  H81      1.0000 0.68080  0.90070  0.50000  Biso   1.000  H
  H82      1.0000 0.31920  0.09930  0.50000  Biso   1.000  H
  H83      1.0000 0.18080  0.40070  0.00000  Biso   1.000  H
  H84      1.0000 0.81920  0.59930  0.00000  Biso   1.000  H
  H85      1.0000 0.80460  0.94190  0.52800  Biso   1.000  H
  H86      1.0000 0.19540  0.05810  0.52800  Biso   1.000  H
  H87      1.0000 0.30460  0.44190  0.02800  Biso   1.000  H
  H88      1.0000 0.69540  0.55810  0.02800  Biso   1.000  H
  H89      1.0000 0.19540  0.05810  0.47200  Biso   1.000  H
  H90      1.0000 0.80460  0.94190  0.47200  Biso   1.000  H
  H91      1.0000 0.69540  0.55810  0.97200  Biso   1.000  H
  H92      1.0000 0.30460  0.44190  0.97200  Biso   1.000  H
  Cu21     1.0000 0.00000  0.50000  0.50000  Biso   1.000  Cu
  Cu22     1.0000 0.50000  0.00000  0.00000  Biso   1.000  Cu
  N41      1.0000 0.86250  0.55700  0.50000  Biso   1.000  N
  N42      1.0000 0.13750  0.44300  0.50000  Biso   1.000  N
  N43      1.0000 0.36250  0.05700  0.00000  Biso   1.000  N
  N44      1.0000 0.63750  0.94300  0.00000  Biso   1.000  N
  C81      1.0000 0.85600  0.66900  0.50000  Biso   1.000  C
  C82      1.0000 0.14400  0.33100  0.50000  Biso   1.000  C
  C83      1.0000 0.35600  0.16900  0.00000  Biso   1.000  C
  C84      1.0000 0.64400  0.83100  0.00000  Biso   1.000  C
  H93      1.0000 0.92000  0.73530  0.50000  Biso   1.000  H
  H94      1.0000 0.08000  0.26470  0.50000  Biso   1.000  H
  H95      1.0000 0.42000  0.23530  0.00000  Biso   1.000  H
  H96      1.0000 0.58000  0.76470  0.00000  Biso   1.000  H
  C85      1.0000 0.73600  0.66300  0.50000  Biso   1.000  C
  C86      1.0000 0.26400  0.33700  0.50000  Biso   1.000  C
  C87      1.0000 0.23600  0.16300  0.00000  Biso   1.000  C
  C88      1.0000 0.76400  0.83700  0.00000  Biso   1.000  C
  H97      1.0000 0.70430  0.72870  0.50000  Biso   1.000  H
  H98      1.0000 0.29570  0.27130  0.50000  Biso   1.000  H
  H99      1.0000 0.20430  0.22870  0.00000  Biso   1.000  H
  H100     1.0000 0.79570  0.77130  0.00000  Biso   1.000  H
  N45      1.0000 0.66600  0.55300  0.50000  Biso   1.000  N
  N46      1.0000 0.33400  0.44700  0.50000  Biso   1.000  N
  N47      1.0000 0.16600  0.05300  0.00000  Biso   1.000  N
  N48      1.0000 0.83400  0.94700  0.00000  Biso   1.000  N
  Cu23     1.0000 0.50000  0.50000  0.50000  Biso   1.000  Cu
  Cu24     1.0000 0.00000  0.00000  0.00000  Biso   1.000  Cu
  C89      1.0000 0.75000  0.49200  0.50000  Biso   1.000  C
  C90      1.0000 0.25000  0.50800  0.50000  Biso   1.000  C
  C91      1.0000 0.25000  0.99200  0.00000  Biso   1.000  C
  C92      1.0000 0.75000  0.00800  0.00000  Biso   1.000  C
  C93      1.0000 0.71700  0.36500  0.50000  Biso   1.000  C
  C94      1.0000 0.28300  0.63500  0.50000  Biso   1.000  C
  C95      1.0000 0.21700  0.86500  0.00000  Biso   1.000  C
  C96      1.0000 0.78300  0.13500  0.00000  Biso   1.000  C
  O1       1.0000 0.64780  0.95880  0.87030  Biso   1.000  O
  O2       1.0000 0.35220  0.04120  0.87030  Biso   1.000  O
  O3       1.0000 0.14780  0.45880  0.37030  Biso   1.000  O
  O4       1.0000 0.85220  0.54120  0.37030  Biso   1.000  O
  O5       1.0000 0.35220  0.04120  0.12970  Biso   1.000  O
  O6       1.0000 0.64780  0.95880  0.12970  Biso   1.000  O
  O7       1.0000 0.85220  0.54120  0.62970  Biso   1.000  O
  O8       1.0000 0.14780  0.45880  0.62970  Biso   1.000  O
  H101     1.0000 0.57670  0.96840  0.87130  Biso   1.000  H
  H102     1.0000 0.42330  0.03160  0.87130  Biso   1.000  H
  H103     1.0000 0.07670  0.46840  0.37130  Biso   1.000  H
  H104     1.0000 0.92330  0.53160  0.37130  Biso   1.000  H
  H105     1.0000 0.42330  0.03160  0.12870  Biso   1.000  H
  H106     1.0000 0.57670  0.96840  0.12870  Biso   1.000  H
  H107     1.0000 0.92330  0.53160  0.62870  Biso   1.000  H
  H108     1.0000 0.07670  0.46840  0.62870  Biso   1.000  H
  H109     1.0000 0.64320  0.88760  0.86840  Biso   1.000  H
  H110     1.0000 0.35680  0.11240  0.86840  Biso   1.000  H
  H111     1.0000 0.14320  0.38760  0.36840  Biso   1.000  H
  H112     1.0000 0.85680  0.61240  0.36840  Biso   1.000  H
  H113     1.0000 0.35680  0.11240  0.13160  Biso   1.000  H
  H114     1.0000 0.64320  0.88760  0.13160  Biso   1.000  H
  H115     1.0000 0.85680  0.61240  0.63160  Biso   1.000  H
  H116     1.0000 0.14320  0.38760  0.63160  Biso   1.000  H
  H117     1.0000 0.73900  0.31210  0.54530  Biso   1.000  H
  H118     1.0000 0.26100  0.68790  0.54530  Biso   1.000  H
  H119     1.0000 0.23900  0.81210  0.04530  Biso   1.000  H
  H120     1.0000 0.76100  0.18790  0.04530  Biso   1.000  H
  H121     1.0000 0.26100  0.68790  0.45470  Biso   1.000  H
  H122     1.0000 0.73900  0.31210  0.45470  Biso   1.000  H
  H123     1.0000 0.76100  0.18790  0.95470  Biso   1.000  H
  H124     1.0000 0.23900  0.81210  0.95470  Biso   1.000  H
  H125     1.0000 0.63090  0.33860  0.50000  Biso   1.000  H
  H126     1.0000 0.36910  0.66140  0.50000  Biso   1.000  H
  H127     1.0000 0.13090  0.83860  0.00000  Biso   1.000  H
  H128     1.0000 0.86910  0.16140  0.00000  Biso   1.000  H
  H129     1.0000 0.74950  0.33790  0.47170  Biso   1.000  H
  H130     1.0000 0.25050  0.66210  0.47170  Biso   1.000  H
  H131     1.0000 0.24950  0.83790  0.97170  Biso   1.000  H
  H132     1.0000 0.75050  0.16210  0.97170  Biso   1.000  H
  H133     1.0000 0.25050  0.66210  0.52830  Biso   1.000  H
  H134     1.0000 0.74950  0.33790  0.52830  Biso   1.000  H
  H135     1.0000 0.75050  0.16210  0.02830  Biso   1.000  H
  H136     1.0000 0.24950  0.83790  0.02830  Biso   1.000  H
  C97      1.0000 0.88400  0.11500  0.50000  Biso   1.000  C
  C98      1.0000 0.11600  0.88500  0.50000  Biso   1.000  C
  C99      1.0000 0.38400  0.61500  0.00000  Biso   1.000  C
  C100     1.0000 0.61600  0.38500  0.00000  Biso   1.000  C
  C101     1.0000 0.55480  0.00880  0.52380  Biso   1.000  C
  C102     1.0000 0.44520  0.99120  0.52380  Biso   1.000  C
  C103     1.0000 0.05480  0.50880  0.02380  Biso   1.000  C
  C104     1.0000 0.94520  0.49120  0.02380  Biso   1.000  C
  C105     1.0000 0.44520  0.99120  0.47620  Biso   1.000  C
  C106     1.0000 0.55480  0.00880  0.47620  Biso   1.000  C
  C107     1.0000 0.94520  0.49120  0.97620  Biso   1.000  C
  C108     1.0000 0.05480  0.50880  0.97620  Biso   1.000  C
  Cu25     1.0000 0.72260  0.04940  0.60410  Biso   1.000  Cu
  Cu26     1.0000 0.27740  0.95060  0.60410  Biso   1.000  Cu
  Cu27     1.0000 0.22260  0.54940  0.10410  Biso   1.000  Cu
  Cu28     1.0000 0.77740  0.45060  0.10410  Biso   1.000  Cu
  Cu29     1.0000 0.27740  0.95060  0.39590  Biso   1.000  Cu
  Cu30     1.0000 0.72260  0.04940  0.39590  Biso   1.000  Cu
  Cu31     1.0000 0.77740  0.45060  0.89590  Biso   1.000  Cu
  Cu32     1.0000 0.22260  0.54940  0.89590  Biso   1.000  Cu
  H137     1.0000 0.90970  0.19660  0.50000  Biso   1.000  H
  H138     1.0000 0.09030  0.80340  0.50000  Biso   1.000  H
  H139     1.0000 0.40970  0.69660  0.00000  Biso   1.000  H
  H140     1.0000 0.59030  0.30340  0.00000  Biso   1.000  H
  H141     1.0000 0.91510  0.08520  0.47200  Biso   1.000  H
  H142     1.0000 0.08490  0.91480  0.47200  Biso   1.000  H
  H143     1.0000 0.41510  0.58520  0.97200  Biso   1.000  H
  H144     1.0000 0.58490  0.41480  0.97200  Biso   1.000  H
  H145     1.0000 0.08490  0.91480  0.52800  Biso   1.000  H
  H146     1.0000 0.91510  0.08520  0.52800  Biso   1.000  H
  H147     1.0000 0.58490  0.41480  0.02800  Biso   1.000  H
  H148     1.0000 0.41510  0.58520  0.02800  Biso   1.000  H
  H149     1.0000 0.40270  0.89580  0.87480  Biso   1.000  H
  H150     1.0000 0.59730  0.10420  0.87480  Biso   1.000  H
  H151     1.0000 0.90270  0.39580  0.37480  Biso   1.000  H
  H152     1.0000 0.09730  0.60420  0.37480  Biso   1.000  H
  H153     1.0000 0.59730  0.10420  0.12520  Biso   1.000  H
  H154     1.0000 0.40270  0.89580  0.12520  Biso   1.000  H
  H155     1.0000 0.09730  0.60420  0.62520  Biso   1.000  H
  H156     1.0000 0.90270  0.39580  0.62520  Biso   1.000  H
  H157     1.0000 0.53040  0.97680  0.87180  Biso   1.000  H
  H158     1.0000 0.46960  0.02320  0.87180  Biso   1.000  H
  H159     1.0000 0.03040  0.47680  0.37180  Biso   1.000  H
  H160     1.0000 0.96960  0.52320  0.37180  Biso   1.000  H
  H161     1.0000 0.46960  0.02320  0.12820  Biso   1.000  H
  H162     1.0000 0.53040  0.97680  0.12820  Biso   1.000  H
  H163     1.0000 0.96960  0.52320  0.62820  Biso   1.000  H
  H164     1.0000 0.03040  0.47680  0.62820  Biso   1.000  H
  H165     1.0000 0.48460  0.98400  0.54430  Biso   1.000  H
  H166     1.0000 0.51540  0.01600  0.54430  Biso   1.000  H
  H167     1.0000 0.98460  0.48400  0.04430  Biso   1.000  H
  H168     1.0000 0.01540  0.51600  0.04430  Biso   1.000  H
  H169     1.0000 0.51540  0.01600  0.45570  Biso   1.000  H
  H170     1.0000 0.48460  0.98400  0.45570  Biso   1.000  H
  H171     1.0000 0.01540  0.51600  0.95570  Biso   1.000  H
  H172     1.0000 0.98460  0.48400  0.95570  Biso   1.000  H
  N49      1.0000 0.67260  0.04360  0.53980  Biso   1.000  N
  N50      1.0000 0.32740  0.95640  0.53980  Biso   1.000  N
  N51      1.0000 0.17260  0.54360  0.03980  Biso   1.000  N
  N52      1.0000 0.82740  0.45640  0.03980  Biso   1.000  N
  N53      1.0000 0.32740  0.95640  0.46020  Biso   1.000  N
  N54      1.0000 0.67260  0.04360  0.46020  Biso   1.000  N
  N55      1.0000 0.82740  0.45640  0.96020  Biso   1.000  N
  N56      1.0000 0.17260  0.54360  0.96020  Biso   1.000  N
  O9       1.0000 0.47950  0.91250  0.87340  Biso   1.000  O
  O10      1.0000 0.52050  0.08750  0.87340  Biso   1.000  O
  O11      1.0000 0.97950  0.41250  0.37340  Biso   1.000  O
  O12      1.0000 0.02050  0.58750  0.37340  Biso   1.000  O
  O13      1.0000 0.52050  0.08750  0.12660  Biso   1.000  O
  O14      1.0000 0.47950  0.91250  0.12660  Biso   1.000  O
  O15      1.0000 0.02050  0.58750  0.62660  Biso   1.000  O
  O16      1.0000 0.97950  0.41250  0.62660  Biso   1.000  O
