data_image0
_cell_length_a       10.9442
_cell_length_b       11.887
_cell_length_c       27.698
_cell_angle_alpha    90
_cell_angle_beta     90
_cell_angle_gamma    90

_symmetry_space_group_name_H-M    "P 1"
_symmetry_int_tables_number       1

loop_
  _symmetry_equiv_pos_as_xyz
  'x, y, z'

loop_
  _atom_site_label
  _atom_site_occupancy
  _atom_site_fract_x
  _atom_site_fract_y
  _atom_site_fract_z
  _atom_site_thermal_displace_type
  _atom_site_B_iso_or_equiv
  _atom_site_type_symbol
  Cu1      1.0000 0.80045  0.06923  0.90498  Biso   1.000  Cu
  Cu2      1.0000 0.69955  0.93077  0.40498  Biso   1.000  Cu
  Cu3      1.0000 0.30045  0.43077  0.09502  Biso   1.000  Cu
  Cu4      1.0000 0.19955  0.56923  0.59502  Biso   1.000  Cu
  Cu5      1.0000 0.19955  0.93077  0.09502  Biso   1.000  Cu
  Cu6      1.0000 0.30045  0.06923  0.59502  Biso   1.000  Cu
  Cu7      1.0000 0.69955  0.56923  0.90498  Biso   1.000  Cu
  Cu8      1.0000 0.80045  0.43077  0.40498  Biso   1.000  Cu
  Cu9      1.0000 0.46006  0.45161  0.90948  Biso   1.000  Cu
  Cu10     1.0000 0.03994  0.54839  0.40948  Biso   1.000  Cu
  Cu11     1.0000 0.96006  0.04839  0.09052  Biso   1.000  Cu
  Cu12     1.0000 0.53994  0.95161  0.59052  Biso   1.000  Cu
  Cu13     1.0000 0.53994  0.54839  0.09052  Biso   1.000  Cu
  Cu14     1.0000 0.96006  0.45161  0.59052  Biso   1.000  Cu
  Cu15     1.0000 0.03994  0.95161  0.90948  Biso   1.000  Cu
  Cu16     1.0000 0.46006  0.04839  0.40948  Biso   1.000  Cu
  S1       1.0000 0.64274  0.42482  0.85300  Biso   1.000  S
  S2       1.0000 0.85726  0.57518  0.35300  Biso   1.000  S
  S3       1.0000 0.14274  0.07518  0.14700  Biso   1.000  S
  S4       1.0000 0.35726  0.92482  0.64700  Biso   1.000  S
  S5       1.0000 0.35726  0.57518  0.14700  Biso   1.000  S
  S6       1.0000 0.14274  0.42482  0.64700  Biso   1.000  S
  S7       1.0000 0.85726  0.92482  0.85300  Biso   1.000  S
  S8       1.0000 0.64274  0.07518  0.35300  Biso   1.000  S
  S9       1.0000 0.49647  0.64896  0.92901  Biso   1.000  S
  S10      1.0000 0.00353  0.35104  0.42901  Biso   1.000  S
  S11      1.0000 0.99647  0.85104  0.07099  Biso   1.000  S
  S12      1.0000 0.50353  0.14896  0.57099  Biso   1.000  S
  S13      1.0000 0.50353  0.35104  0.07099  Biso   1.000  S
  S14      1.0000 0.99647  0.64896  0.57099  Biso   1.000  S
  S15      1.0000 0.00353  0.14896  0.92901  Biso   1.000  S
  S16      1.0000 0.49647  0.85104  0.42901  Biso   1.000  S
  S17      1.0000 0.22163  0.42517  0.77116  Biso   1.000  S
  S18      1.0000 0.27837  0.57483  0.27116  Biso   1.000  S
  S19      1.0000 0.72163  0.07483  0.22884  Biso   1.000  S
  S20      1.0000 0.77837  0.92517  0.72884  Biso   1.000  S
  S21      1.0000 0.77837  0.57483  0.22884  Biso   1.000  S
  S22      1.0000 0.72163  0.42517  0.72884  Biso   1.000  S
  S23      1.0000 0.27837  0.92517  0.77116  Biso   1.000  S
  S24      1.0000 0.22163  0.07483  0.27116  Biso   1.000  S
  N1       1.0000 0.71350  0.02160  0.96650  Biso   1.000  N
  N2       1.0000 0.78650  0.97840  0.46650  Biso   1.000  N
  N3       1.0000 0.21350  0.47840  0.03350  Biso   1.000  N
  N4       1.0000 0.28650  0.52160  0.53350  Biso   1.000  N
  N5       1.0000 0.28650  0.97840  0.03350  Biso   1.000  N
  N6       1.0000 0.21350  0.02160  0.53350  Biso   1.000  N
  N7       1.0000 0.78650  0.52160  0.96650  Biso   1.000  N
  N8       1.0000 0.71350  0.47840  0.46650  Biso   1.000  N
  C1       1.0000 0.69690  0.30000  0.87001  Biso   1.000  C
  C2       1.0000 0.80310  0.70000  0.37001  Biso   1.000  C
  C3       1.0000 0.19690  0.20000  0.12999  Biso   1.000  C
  C4       1.0000 0.30310  0.80000  0.62999  Biso   1.000  C
  C5       1.0000 0.30310  0.70000  0.12999  Biso   1.000  C
  C6       1.0000 0.19690  0.30000  0.62999  Biso   1.000  C
  C7       1.0000 0.80310  0.80000  0.87001  Biso   1.000  C
  C8       1.0000 0.69690  0.20000  0.37001  Biso   1.000  C
  N9       1.0000 0.73230  0.21080  0.87951  Biso   1.000  N
  N10      1.0000 0.76770  0.78920  0.37951  Biso   1.000  N
  N11      1.0000 0.23230  0.28920  0.12049  Biso   1.000  N
  N12      1.0000 0.26770  0.71080  0.62049  Biso   1.000  N
  N13      1.0000 0.26770  0.78920  0.12049  Biso   1.000  N
  N14      1.0000 0.23230  0.21080  0.62049  Biso   1.000  N
  N15      1.0000 0.76770  0.71080  0.87951  Biso   1.000  N
  N16      1.0000 0.73230  0.28920  0.37951  Biso   1.000  N
  C9       1.0000 0.49340  0.00130  0.13106  Biso   1.000  C
  C10      1.0000 0.00660  0.99870  0.63106  Biso   1.000  C
  C11      1.0000 0.99340  0.49870  0.86894  Biso   1.000  C
  C12      1.0000 0.50660  0.50130  0.36894  Biso   1.000  C
  C13      1.0000 0.50660  0.99870  0.86894  Biso   1.000  C
  C14      1.0000 0.99340  0.00130  0.36894  Biso   1.000  C
  C15      1.0000 0.00660  0.50130  0.13106  Biso   1.000  C
  C16      1.0000 0.49340  0.49870  0.63106  Biso   1.000  C
  H1       1.0000 0.46560  0.06920  0.11670  Biso   1.000  H
  H2       1.0000 0.03440  0.93080  0.61670  Biso   1.000  H
  H3       1.0000 0.96560  0.43080  0.88330  Biso   1.000  H
  H4       1.0000 0.53440  0.56920  0.38330  Biso   1.000  H
  H5       1.0000 0.53440  0.93080  0.88330  Biso   1.000  H
  H6       1.0000 0.96560  0.06920  0.38330  Biso   1.000  H
  H7       1.0000 0.03440  0.56920  0.11670  Biso   1.000  H
  H8       1.0000 0.46560  0.43080  0.61670  Biso   1.000  H
  N17      1.0000 0.51900  0.62420  0.02991  Biso   1.000  N
  N18      1.0000 0.98100  0.37580  0.52991  Biso   1.000  N
  N19      1.0000 0.01900  0.87580  0.97009  Biso   1.000  N
  N20      1.0000 0.48100  0.12420  0.47009  Biso   1.000  N
  N21      1.0000 0.48100  0.37580  0.97009  Biso   1.000  N
  N22      1.0000 0.01900  0.62420  0.47009  Biso   1.000  N
  N23      1.0000 0.98100  0.12420  0.02991  Biso   1.000  N
  N24      1.0000 0.51900  0.87580  0.52991  Biso   1.000  N
  C17      1.0000 0.50950  0.63460  0.98819  Biso   1.000  C
  C18      1.0000 0.99050  0.36540  0.48819  Biso   1.000  C
  C19      1.0000 0.00950  0.86540  0.01181  Biso   1.000  C
  C20      1.0000 0.49050  0.13460  0.51181  Biso   1.000  C
  C21      1.0000 0.49050  0.36540  0.01181  Biso   1.000  C
  C22      1.0000 0.00950  0.63460  0.51181  Biso   1.000  C
  C23      1.0000 0.99050  0.13460  0.98819  Biso   1.000  C
  C24      1.0000 0.50950  0.86540  0.48819  Biso   1.000  C
  C25      1.0000 0.66860  0.88310  0.02721  Biso   1.000  C
  C26      1.0000 0.83140  0.11690  0.52721  Biso   1.000  C
  C27      1.0000 0.16860  0.61690  0.97279  Biso   1.000  C
  C28      1.0000 0.33140  0.38310  0.47279  Biso   1.000  C
  C29      1.0000 0.33140  0.11690  0.97279  Biso   1.000  C
  C30      1.0000 0.16860  0.88310  0.47279  Biso   1.000  C
  C31      1.0000 0.83140  0.38310  0.02721  Biso   1.000  C
  C32      1.0000 0.66860  0.61690  0.52721  Biso   1.000  C
  H9       1.0000 0.66890  0.80630  0.03660  Biso   1.000  H
  H10      1.0000 0.83110  0.19370  0.53660  Biso   1.000  H
  H11      1.0000 0.16890  0.69370  0.96340  Biso   1.000  H
  H12      1.0000 0.33110  0.30630  0.46340  Biso   1.000  H
  H13      1.0000 0.33110  0.19370  0.96340  Biso   1.000  H
  H14      1.0000 0.16890  0.80630  0.46340  Biso   1.000  H
  H15      1.0000 0.83110  0.30630  0.03660  Biso   1.000  H
  H16      1.0000 0.66890  0.69370  0.53660  Biso   1.000  H
  N25      1.0000 0.33390  0.44470  0.86135  Biso   1.000  N
  N26      1.0000 0.16610  0.55530  0.36135  Biso   1.000  N
  N27      1.0000 0.83390  0.05530  0.13865  Biso   1.000  N
  N28      1.0000 0.66610  0.94470  0.63865  Biso   1.000  N
  N29      1.0000 0.66610  0.55530  0.13865  Biso   1.000  N
  N30      1.0000 0.83390  0.44470  0.63865  Biso   1.000  N
  N31      1.0000 0.16610  0.94470  0.86135  Biso   1.000  N
  N32      1.0000 0.33390  0.05530  0.36135  Biso   1.000  N
  C33      1.0000 0.61720  0.83690  0.12997  Biso   1.000  C
  C34      1.0000 0.88280  0.16310  0.62997  Biso   1.000  C
  C35      1.0000 0.11720  0.66310  0.87003  Biso   1.000  C
  C36      1.0000 0.38280  0.33690  0.37003  Biso   1.000  C
  C37      1.0000 0.38280  0.16310  0.87003  Biso   1.000  C
  C38      1.0000 0.11720  0.83690  0.37003  Biso   1.000  C
  C39      1.0000 0.88280  0.33690  0.12997  Biso   1.000  C
  C40      1.0000 0.61720  0.66310  0.62997  Biso   1.000  C
  H17      1.0000 0.67670  0.79000  0.11520  Biso   1.000  H
  H18      1.0000 0.82330  0.21000  0.61520  Biso   1.000  H
  H19      1.0000 0.17670  0.71000  0.88480  Biso   1.000  H
  H20      1.0000 0.32330  0.29000  0.38480  Biso   1.000  H
  H21      1.0000 0.32330  0.21000  0.88480  Biso   1.000  H
  H22      1.0000 0.17670  0.79000  0.38480  Biso   1.000  H
  H23      1.0000 0.82330  0.29000  0.11520  Biso   1.000  H
  H24      1.0000 0.67670  0.71000  0.61520  Biso   1.000  H
  C41      1.0000 0.57810  0.93450  0.10666  Biso   1.000  C
  C42      1.0000 0.92190  0.06550  0.60666  Biso   1.000  C
  C43      1.0000 0.07810  0.56550  0.89334  Biso   1.000  C
  C44      1.0000 0.42190  0.43450  0.39334  Biso   1.000  C
  C45      1.0000 0.42190  0.06550  0.89334  Biso   1.000  C
  C46      1.0000 0.07810  0.93450  0.39334  Biso   1.000  C
  C47      1.0000 0.92190  0.43450  0.10666  Biso   1.000  C
  C48      1.0000 0.57810  0.56550  0.60666  Biso   1.000  C
  C49      1.0000 0.71220  0.91490  0.98229  Biso   1.000  C
  C50      1.0000 0.78780  0.08510  0.48229  Biso   1.000  C
  C51      1.0000 0.21220  0.58510  0.01771  Biso   1.000  C
  C52      1.0000 0.28780  0.41490  0.51771  Biso   1.000  C
  C53      1.0000 0.28780  0.08510  0.01771  Biso   1.000  C
  C54      1.0000 0.21220  0.91490  0.51771  Biso   1.000  C
  C55      1.0000 0.78780  0.41490  0.98229  Biso   1.000  C
  C56      1.0000 0.71220  0.58510  0.48229  Biso   1.000  C
  H25      1.0000 0.74280  0.85800  0.96150  Biso   1.000  H
  H26      1.0000 0.75720  0.14200  0.46150  Biso   1.000  H
  H27      1.0000 0.24280  0.64200  0.03850  Biso   1.000  H
  H28      1.0000 0.25720  0.35800  0.53850  Biso   1.000  H
  H29      1.0000 0.25720  0.14200  0.03850  Biso   1.000  H
  H30      1.0000 0.24280  0.85800  0.53850  Biso   1.000  H
  H31      1.0000 0.75720  0.35800  0.96150  Biso   1.000  H
  H32      1.0000 0.74280  0.64200  0.46150  Biso   1.000  H
  C57      1.0000 0.44980  0.97020  0.17546  Biso   1.000  C
  C58      1.0000 0.05020  0.02980  0.67546  Biso   1.000  C
  C59      1.0000 0.94980  0.52980  0.82454  Biso   1.000  C
  C60      1.0000 0.55020  0.47020  0.32454  Biso   1.000  C
  C61      1.0000 0.55020  0.02980  0.82454  Biso   1.000  C
  C62      1.0000 0.94980  0.97020  0.32454  Biso   1.000  C
  C63      1.0000 0.05020  0.47020  0.17546  Biso   1.000  C
  C64      1.0000 0.44980  0.52980  0.67546  Biso   1.000  C
  H33      1.0000 0.39300  0.01730  0.19170  Biso   1.000  H
  H34      1.0000 0.10700  0.98270  0.69170  Biso   1.000  H
  H35      1.0000 0.89300  0.48270  0.80830  Biso   1.000  H
  H36      1.0000 0.60700  0.51730  0.30830  Biso   1.000  H
  H37      1.0000 0.60700  0.98270  0.80830  Biso   1.000  H
  H38      1.0000 0.89300  0.01730  0.30830  Biso   1.000  H
  H39      1.0000 0.10700  0.51730  0.19170  Biso   1.000  H
  H40      1.0000 0.39300  0.48270  0.69170  Biso   1.000  H
  N33      1.0000 0.48640  0.87410  0.19630  Biso   1.000  N
  N34      1.0000 0.01360  0.12590  0.69630  Biso   1.000  N
  N35      1.0000 0.98640  0.62590  0.80370  Biso   1.000  N
  N36      1.0000 0.51360  0.37410  0.30370  Biso   1.000  N
  N37      1.0000 0.51360  0.12590  0.80370  Biso   1.000  N
  N38      1.0000 0.98640  0.87410  0.30370  Biso   1.000  N
  N39      1.0000 0.01360  0.37410  0.19630  Biso   1.000  N
  N40      1.0000 0.48640  0.62590  0.69630  Biso   1.000  N
  C65      1.0000 0.28620  0.43810  0.82404  Biso   1.000  C
  C66      1.0000 0.21380  0.56190  0.32404  Biso   1.000  C
  C67      1.0000 0.78620  0.06190  0.17596  Biso   1.000  C
  C68      1.0000 0.71380  0.93810  0.67596  Biso   1.000  C
  C69      1.0000 0.71380  0.56190  0.17596  Biso   1.000  C
  C70      1.0000 0.78620  0.43810  0.67596  Biso   1.000  C
  C71      1.0000 0.21380  0.93810  0.82404  Biso   1.000  C
  C72      1.0000 0.28620  0.06190  0.32404  Biso   1.000  C
  C73      1.0000 0.62470  0.96530  0.05831  Biso   1.000  C
  C74      1.0000 0.87530  0.03470  0.55831  Biso   1.000  C
  C75      1.0000 0.12470  0.53470  0.94169  Biso   1.000  C
  C76      1.0000 0.37530  0.46530  0.44169  Biso   1.000  C
  C77      1.0000 0.37530  0.03470  0.94169  Biso   1.000  C
  C78      1.0000 0.12470  0.96530  0.44169  Biso   1.000  C
  C79      1.0000 0.87530  0.46530  0.05831  Biso   1.000  C
  C80      1.0000 0.62470  0.53470  0.55831  Biso   1.000  C
  C81      1.0000 0.66860  0.09910  0.99657  Biso   1.000  C
  C82      1.0000 0.83140  0.90090  0.49657  Biso   1.000  C
  C83      1.0000 0.16860  0.40090  0.00343  Biso   1.000  C
  C84      1.0000 0.33140  0.59910  0.50343  Biso   1.000  C
  C85      1.0000 0.33140  0.90090  0.00343  Biso   1.000  C
  C86      1.0000 0.16860  0.09910  0.50343  Biso   1.000  C
  C87      1.0000 0.83140  0.59910  0.99657  Biso   1.000  C
  C88      1.0000 0.66860  0.40090  0.49657  Biso   1.000  C
  H41      1.0000 0.66630  0.17500  0.98590  Biso   1.000  H
  H42      1.0000 0.83370  0.82500  0.48590  Biso   1.000  H
  H43      1.0000 0.16630  0.32500  0.01410  Biso   1.000  H
  H44      1.0000 0.33370  0.67500  0.51410  Biso   1.000  H
  H45      1.0000 0.33370  0.82500  0.01410  Biso   1.000  H
  H46      1.0000 0.16630  0.17500  0.51410  Biso   1.000  H
  H47      1.0000 0.83370  0.67500  0.98590  Biso   1.000  H
  H48      1.0000 0.66630  0.32500  0.48590  Biso   1.000  H
  C89      1.0000 0.52520  0.82910  0.28270  Biso   1.000  C
  C90      1.0000 0.97480  0.17090  0.78270  Biso   1.000  C
  C91      1.0000 0.02520  0.67090  0.71730  Biso   1.000  C
  C92      1.0000 0.47480  0.32910  0.21730  Biso   1.000  C
  C93      1.0000 0.47480  0.17090  0.71730  Biso   1.000  C
  C94      1.0000 0.02520  0.82910  0.21730  Biso   1.000  C
  C95      1.0000 0.97480  0.32910  0.28270  Biso   1.000  C
  C96      1.0000 0.52520  0.67090  0.78270  Biso   1.000  C
  H49      1.0000 0.58700  0.77240  0.27480  Biso   1.000  H
  H50      1.0000 0.91300  0.22760  0.77480  Biso   1.000  H
  H51      1.0000 0.08700  0.72760  0.72520  Biso   1.000  H
  H52      1.0000 0.41300  0.27240  0.22520  Biso   1.000  H
  H53      1.0000 0.41300  0.22760  0.72520  Biso   1.000  H
  H54      1.0000 0.08700  0.77240  0.22520  Biso   1.000  H
  H55      1.0000 0.91300  0.27240  0.27480  Biso   1.000  H
  H56      1.0000 0.58700  0.72760  0.77480  Biso   1.000  H
  H57      1.0000 0.48390  0.80810  0.31280  Biso   1.000  H
  H58      1.0000 0.01610  0.19190  0.81280  Biso   1.000  H
  H59      1.0000 0.98390  0.69190  0.68720  Biso   1.000  H
  H60      1.0000 0.51610  0.30810  0.18720  Biso   1.000  H
  H61      1.0000 0.51610  0.19190  0.68720  Biso   1.000  H
  H62      1.0000 0.98390  0.80810  0.18720  Biso   1.000  H
  H63      1.0000 0.01610  0.30810  0.31280  Biso   1.000  H
  H64      1.0000 0.48390  0.69190  0.81280  Biso   1.000  H
  H65      1.0000 0.56480  0.90250  0.28680  Biso   1.000  H
  H66      1.0000 0.93520  0.09750  0.78680  Biso   1.000  H
  H67      1.0000 0.06480  0.59750  0.71320  Biso   1.000  H
  H68      1.0000 0.43520  0.40250  0.21320  Biso   1.000  H
  H69      1.0000 0.43520  0.09750  0.71320  Biso   1.000  H
  H70      1.0000 0.06480  0.90250  0.21320  Biso   1.000  H
  H71      1.0000 0.93520  0.40250  0.28680  Biso   1.000  H
  H72      1.0000 0.56480  0.59750  0.78680  Biso   1.000  H
  C97      1.0000 0.62530  0.07520  0.04210  Biso   1.000  C
  C98      1.0000 0.87470  0.92480  0.54210  Biso   1.000  C
  C99      1.0000 0.12530  0.42480  0.95790  Biso   1.000  C
  C100     1.0000 0.37470  0.57520  0.45790  Biso   1.000  C
  C101     1.0000 0.37470  0.92480  0.95790  Biso   1.000  C
  C102     1.0000 0.12530  0.07520  0.45790  Biso   1.000  C
  C103     1.0000 0.87470  0.57520  0.04210  Biso   1.000  C
  C104     1.0000 0.62530  0.42480  0.54210  Biso   1.000  C
  H73      1.0000 0.59600  0.13400  0.06230  Biso   1.000  H
  H74      1.0000 0.90400  0.86600  0.56230  Biso   1.000  H
  H75      1.0000 0.09600  0.36600  0.93770  Biso   1.000  H
  H76      1.0000 0.40400  0.63400  0.43770  Biso   1.000  H
  H77      1.0000 0.40400  0.86600  0.93770  Biso   1.000  H
  H78      1.0000 0.09600  0.13400  0.43770  Biso   1.000  H
  H79      1.0000 0.90400  0.63400  0.06230  Biso   1.000  H
  H80      1.0000 0.59600  0.36600  0.56230  Biso   1.000  H
  C105     1.0000 0.56930  0.80840  0.17458  Biso   1.000  C
  C106     1.0000 0.93070  0.19160  0.67458  Biso   1.000  C
  C107     1.0000 0.06930  0.69160  0.82542  Biso   1.000  C
  C108     1.0000 0.43070  0.30840  0.32542  Biso   1.000  C
  C109     1.0000 0.43070  0.19160  0.82542  Biso   1.000  C
  C110     1.0000 0.06930  0.80840  0.32542  Biso   1.000  C
  C111     1.0000 0.93070  0.30840  0.17458  Biso   1.000  C
  C112     1.0000 0.56930  0.69160  0.67458  Biso   1.000  C
  H81      1.0000 0.59570  0.74130  0.19000  Biso   1.000  H
  H82      1.0000 0.90430  0.25870  0.69000  Biso   1.000  H
  H83      1.0000 0.09570  0.75870  0.81000  Biso   1.000  H
  H84      1.0000 0.40430  0.24130  0.31000  Biso   1.000  H
  H85      1.0000 0.40430  0.25870  0.81000  Biso   1.000  H
  H86      1.0000 0.09570  0.74130  0.31000  Biso   1.000  H
  H87      1.0000 0.90430  0.24130  0.19000  Biso   1.000  H
  H88      1.0000 0.59570  0.75870  0.69000  Biso   1.000  H
  C113     1.0000 0.43400  0.83590  0.24290  Biso   1.000  C
  C114     1.0000 0.06600  0.16410  0.74290  Biso   1.000  C
  C115     1.0000 0.93400  0.66410  0.75710  Biso   1.000  C
  C116     1.0000 0.56600  0.33590  0.25710  Biso   1.000  C
  C117     1.0000 0.56600  0.16410  0.75710  Biso   1.000  C
  C118     1.0000 0.93400  0.83590  0.25710  Biso   1.000  C
  C119     1.0000 0.06600  0.33590  0.24290  Biso   1.000  C
  C120     1.0000 0.43400  0.66410  0.74290  Biso   1.000  C
  H89      1.0000 0.39670  0.76080  0.23830  Biso   1.000  H
  H90      1.0000 0.10330  0.23920  0.73830  Biso   1.000  H
  H91      1.0000 0.89670  0.73920  0.76170  Biso   1.000  H
  H92      1.0000 0.60330  0.26080  0.26170  Biso   1.000  H
  H93      1.0000 0.60330  0.23920  0.76170  Biso   1.000  H
  H94      1.0000 0.89670  0.76080  0.26170  Biso   1.000  H
  H95      1.0000 0.10330  0.26080  0.23830  Biso   1.000  H
  H96      1.0000 0.39670  0.73920  0.73830  Biso   1.000  H
  H97      1.0000 0.36820  0.88850  0.25250  Biso   1.000  H
  H98      1.0000 0.13180  0.11150  0.75250  Biso   1.000  H
  H99      1.0000 0.86820  0.61150  0.74750  Biso   1.000  H
  H100     1.0000 0.63180  0.38850  0.24750  Biso   1.000  H
  H101     1.0000 0.63180  0.11150  0.74750  Biso   1.000  H
  H102     1.0000 0.86820  0.88850  0.24750  Biso   1.000  H
  H103     1.0000 0.13180  0.38850  0.25250  Biso   1.000  H
  H104     1.0000 0.36820  0.61150  0.75250  Biso   1.000  H
