data_image0
_cell_length_a       7.555
_cell_length_b       7.6608
_cell_length_c       17.656
_cell_angle_alpha    90
_cell_angle_beta     90
_cell_angle_gamma    94.077

_symmetry_space_group_name_H-M    "P 1"
_symmetry_int_tables_number       1

loop_
  _symmetry_equiv_pos_as_xyz
  'x, y, z'

loop_
  _atom_site_label
  _atom_site_occupancy
  _atom_site_fract_x
  _atom_site_fract_y
  _atom_site_fract_z
  _atom_site_thermal_displace_type
  _atom_site_B_iso_or_equiv
  _atom_site_type_symbol
  Br1      1.0000 0.60310  0.46591  0.23088  Biso   1.000  Br
  Br2      1.0000 0.39690  0.03409  0.73088  Biso   1.000  Br
  Br3      1.0000 0.39690  0.53409  0.76912  Biso   1.000  Br
  Br4      1.0000 0.60310  0.96591  0.26912  Biso   1.000  Br
  Br5      1.0000 0.26480  0.64790  0.39544  Biso   1.000  Br
  Br6      1.0000 0.73520  0.85210  0.89544  Biso   1.000  Br
  Br7      1.0000 0.73520  0.35210  0.60456  Biso   1.000  Br
  Br8      1.0000 0.26480  0.14790  0.10456  Biso   1.000  Br
  Br9      1.0000 0.27360  0.63080  0.95250  Biso   1.000  Br
  Br10     1.0000 0.72640  0.86920  0.45250  Biso   1.000  Br
  Br11     1.0000 0.72640  0.36920  0.04750  Biso   1.000  Br
  Br12     1.0000 0.27360  0.13080  0.54750  Biso   1.000  Br
  Cu1      1.0000 0.40490  0.69280  0.27316  Biso   1.000  Cu
  Cu2      1.0000 0.59510  0.80720  0.77316  Biso   1.000  Cu
  Cu3      1.0000 0.59510  0.30720  0.72684  Biso   1.000  Cu
  Cu4      1.0000 0.40490  0.19280  0.22684  Biso   1.000  Cu
  N1       1.0000 0.22140  0.68720  0.18290  Biso   1.000  N
  N2       1.0000 0.77860  0.81280  0.68290  Biso   1.000  N
  N3       1.0000 0.77860  0.31280  0.81710  Biso   1.000  N
  N4       1.0000 0.22140  0.18720  0.31710  Biso   1.000  N
  N5       1.0000 0.99700  0.78800  0.25630  Biso   1.000  N
  N6       1.0000 0.00300  0.71200  0.75630  Biso   1.000  N
  N7       1.0000 0.00300  0.21200  0.74370  Biso   1.000  N
  N8       1.0000 0.99700  0.28800  0.24370  Biso   1.000  N
  H1       1.0000 0.89400  0.82770  0.26090  Biso   1.000  H
  H2       1.0000 0.10600  0.67230  0.76090  Biso   1.000  H
  H3       1.0000 0.10600  0.17230  0.73910  Biso   1.000  H
  H4       1.0000 0.89400  0.32770  0.23910  Biso   1.000  H
  H5       1.0000 0.06150  0.77470  0.29580  Biso   1.000  H
  H6       1.0000 0.93850  0.72530  0.79580  Biso   1.000  H
  H7       1.0000 0.93850  0.22530  0.70420  Biso   1.000  H
  H8       1.0000 0.06150  0.27470  0.20420  Biso   1.000  H
  N9       1.0000 0.95900  0.76780  0.12610  Biso   1.000  N
  N10      1.0000 0.04100  0.73220  0.62610  Biso   1.000  N
  N11      1.0000 0.04100  0.23220  0.87390  Biso   1.000  N
  N12      1.0000 0.95900  0.26780  0.37390  Biso   1.000  N
  H9       1.0000 0.85250  0.80020  0.13040  Biso   1.000  H
  H10      1.0000 0.14750  0.69980  0.63040  Biso   1.000  H
  H11      1.0000 0.14750  0.19980  0.86960  Biso   1.000  H
  H12      1.0000 0.85250  0.30020  0.36960  Biso   1.000  H
  C1       1.0000 0.05600  0.74800  0.18920  Biso   1.000  C
  C2       1.0000 0.94400  0.75200  0.68920  Biso   1.000  C
  C3       1.0000 0.94400  0.25200  0.81080  Biso   1.000  C
  C4       1.0000 0.05600  0.24800  0.31080  Biso   1.000  C
  C5       1.0000 0.27800  0.65000  0.11480  Biso   1.000  C
  C6       1.0000 0.72200  0.85000  0.61480  Biso   1.000  C
  C7       1.0000 0.72200  0.35000  0.88520  Biso   1.000  C
  C8       1.0000 0.27800  0.15000  0.38520  Biso   1.000  C
  H13      1.0000 0.38820  0.60450  0.11020  Biso   1.000  H
  H14      1.0000 0.61180  0.89550  0.61020  Biso   1.000  H
  H15      1.0000 0.61180  0.39550  0.88980  Biso   1.000  H
  H16      1.0000 0.38820  0.10450  0.38980  Biso   1.000  H
  C9       1.0000 0.17900  0.67500  0.04850  Biso   1.000  C
  C10      1.0000 0.82100  0.82500  0.54850  Biso   1.000  C
  C11      1.0000 0.82100  0.32500  0.95150  Biso   1.000  C
  C12      1.0000 0.17900  0.17500  0.45150  Biso   1.000  C
  C13      1.0000 0.02200  0.73900  0.05830  Biso   1.000  C
  C14      1.0000 0.97800  0.76100  0.55830  Biso   1.000  C
  C15      1.0000 0.97800  0.26100  0.94170  Biso   1.000  C
  C16      1.0000 0.02200  0.23900  0.44170  Biso   1.000  C
  H17      1.0000 0.95410  0.76300  0.01600  Biso   1.000  H
  H18      1.0000 0.04590  0.73700  0.51600  Biso   1.000  H
  H19      1.0000 0.04590  0.23700  0.98400  Biso   1.000  H
  H20      1.0000 0.95410  0.26300  0.48400  Biso   1.000  H
  O1       1.0000 0.64050  0.88230  0.08050  Biso   1.000  O
  O2       1.0000 0.35950  0.61770  0.58050  Biso   1.000  O
  O3       1.0000 0.35950  0.11770  0.91950  Biso   1.000  O
  O4       1.0000 0.64050  0.38230  0.41950  Biso   1.000  O
  H21      1.0000 0.56090  0.89570  0.11360  Biso   1.000  H
  H22      1.0000 0.43910  0.60430  0.61360  Biso   1.000  H
  H23      1.0000 0.43910  0.10430  0.88640  Biso   1.000  H
  H24      1.0000 0.56090  0.39570  0.38640  Biso   1.000  H
  H25      1.0000 0.60170  0.80730  0.04800  Biso   1.000  H
  H26      1.0000 0.39830  0.69270  0.54800  Biso   1.000  H
  H27      1.0000 0.39830  0.19270  0.95200  Biso   1.000  H
  H28      1.0000 0.60170  0.30730  0.45200  Biso   1.000  H
