data_image0
_cell_length_a       10.4117
_cell_length_b       11.7004
_cell_length_c       11.9386
_cell_angle_alpha    77.223
_cell_angle_beta     74.016
_cell_angle_gamma    85.756

_symmetry_space_group_name_H-M    "P 1"
_symmetry_int_tables_number       1

loop_
  _symmetry_equiv_pos_as_xyz
  'x, y, z'

loop_
  _atom_site_label
  _atom_site_occupancy
  _atom_site_fract_x
  _atom_site_fract_y
  _atom_site_fract_z
  _atom_site_thermal_displace_type
  _atom_site_B_iso_or_equiv
  _atom_site_type_symbol
  Cu1      1.0000 0.30488  0.11918  0.49775  Biso   1.000  Cu
  Cu2      1.0000 0.69512  0.88082  0.50225  Biso   1.000  Cu
  Cu3      1.0000 0.31149  0.55445  0.93019  Biso   1.000  Cu
  Cu4      1.0000 0.68851  0.44555  0.06981  Biso   1.000  Cu
  O1       1.0000 0.77730  0.38802  0.92503  Biso   1.000  O
  O2       1.0000 0.22270  0.61198  0.07497  Biso   1.000  O
  O3       1.0000 0.59200  0.29470  0.94230  Biso   1.000  O
  O4       1.0000 0.40800  0.70530  0.05770  Biso   1.000  O
  O5       1.0000 0.60000  0.03020  0.66890  Biso   1.000  O
  O6       1.0000 0.40000  0.96980  0.33110  Biso   1.000  O
  O7       1.0000 0.78870  0.00305  0.53473  Biso   1.000  O
  O8       1.0000 0.21130  0.99695  0.46527  Biso   1.000  O
  O9       1.0000 0.13730  0.18520  0.65320  Biso   1.000  O
  O10      1.0000 0.86270  0.81480  0.34680  Biso   1.000  O
  H1       1.0000 0.16730  0.21300  0.70100  Biso   1.000  H
  H2       1.0000 0.83270  0.78700  0.29900  Biso   1.000  H
  O11      1.0000 0.58240  0.21188  0.38201  Biso   1.000  O
  O12      1.0000 0.41760  0.78812  0.61799  Biso   1.000  O
  H3       1.0000 0.57136  0.14080  0.40039  Biso   1.000  H
  H4       1.0000 0.42864  0.85920  0.59961  Biso   1.000  H
  O13      1.0000 0.40450  0.23697  0.52839  Biso   1.000  O
  O14      1.0000 0.59550  0.76303  0.47161  Biso   1.000  O
  O15      1.0000 0.40900  0.49606  0.78937  Biso   1.000  O
  O16      1.0000 0.59100  0.50394  0.21063  Biso   1.000  O
  O17      1.0000 0.59140  0.59562  0.76859  Biso   1.000  O
  O18      1.0000 0.40860  0.40438  0.23141  Biso   1.000  O
  O19      1.0000 0.93530  0.45080  0.44150  Biso   1.000  O
  O20      1.0000 0.06470  0.54920  0.55850  Biso   1.000  O
  H5       1.0000 0.95822  0.42710  0.37910  Biso   1.000  H
  H6       1.0000 0.04178  0.57290  0.62090  Biso   1.000  H
  C1       1.0000 0.79050  0.24820  0.80580  Biso   1.000  C
  C2       1.0000 0.20950  0.75180  0.19420  Biso   1.000  C
  C3       1.0000 0.72400  0.18200  0.75650  Biso   1.000  C
  C4       1.0000 0.27600  0.81800  0.24350  Biso   1.000  C
  H7       1.0000 0.63120  0.17881  0.78067  Biso   1.000  H
  H8       1.0000 0.36880  0.82119  0.21933  Biso   1.000  H
  C5       1.0000 0.79540  0.12050  0.67130  Biso   1.000  C
  C6       1.0000 0.20460  0.87950  0.32870  Biso   1.000  C
  C7       1.0000 0.93360  0.12390  0.63630  Biso   1.000  C
  C8       1.0000 0.06640  0.87610  0.36370  Biso   1.000  C
  H9       1.0000 0.98169  0.08329  0.57899  Biso   1.000  H
  H10      1.0000 0.01831  0.91671  0.42101  Biso   1.000  H
  C9       1.0000 0.99980  0.18820  0.68710  Biso   1.000  C
  C10      1.0000 0.00020  0.81180  0.31290  Biso   1.000  C
  C11      1.0000 0.93010  0.25150  0.77040  Biso   1.000  C
  C12      1.0000 0.06990  0.74850  0.22960  Biso   1.000  C
  H11      1.0000 0.97558  0.29573  0.80255  Biso   1.000  H
  H12      1.0000 0.02442  0.70427  0.19745  Biso   1.000  H
  C13      1.0000 0.71310  0.31450  0.89700  Biso   1.000  C
  C14      1.0000 0.28690  0.68550  0.10300  Biso   1.000  C
  C15      1.0000 0.72120  0.04680  0.62220  Biso   1.000  C
  C16      1.0000 0.27880  0.95320  0.37780  Biso   1.000  C
  C17      1.0000 0.59910  0.33820  0.50810  Biso   1.000  C
  C18      1.0000 0.40090  0.66180  0.49190  Biso   1.000  C
  C19      1.0000 0.53310  0.39220  0.60020  Biso   1.000  C
  C20      1.0000 0.46690  0.60780  0.39980  Biso   1.000  C
  H13      1.0000 0.44277  0.37845  0.63657  Biso   1.000  H
  H14      1.0000 0.55723  0.62155  0.36343  Biso   1.000  H
  C21      1.0000 0.60110  0.46660  0.63840  Biso   1.000  C
  C22      1.0000 0.39890  0.53340  0.36160  Biso   1.000  C
  C23      1.0000 0.73620  0.48650  0.58360  Biso   1.000  C
  C24      1.0000 0.26380  0.51350  0.41640  Biso   1.000  C
  H15      1.0000 0.78228  0.53685  0.60864  Biso   1.000  H
  H16      1.0000 0.21772  0.46315  0.39136  Biso   1.000  H
  C25      1.0000 0.80180  0.43190  0.49230  Biso   1.000  C
  C26      1.0000 0.19820  0.56810  0.50770  Biso   1.000  C
  C27      1.0000 0.73430  0.35700  0.45360  Biso   1.000  C
  C28      1.0000 0.26570  0.64300  0.54640  Biso   1.000  C
  H17      1.0000 0.77887  0.31990  0.39220  Biso   1.000  H
  H18      1.0000 0.22113  0.68010  0.60780  Biso   1.000  H
  C29      1.0000 0.53010  0.52440  0.73870  Biso   1.000  C
  C30      1.0000 0.46990  0.47560  0.26130  Biso   1.000  C
  C31      1.0000 0.52450  0.25680  0.46890  Biso   1.000  C
  C32      1.0000 0.47550  0.74320  0.53110  Biso   1.000  C
  O21      1.0000 0.25060  0.23050  0.37200  Biso   1.000  O
  O22      1.0000 0.74940  0.76950  0.62800  Biso   1.000  O
  H19      1.0000 0.23318  0.19660  0.31578  Biso   1.000  H
  H20      1.0000 0.76682  0.80340  0.68422  Biso   1.000  H
  H21      1.0000 0.31714  0.28052  0.32576  Biso   1.000  H
  H22      1.0000 0.68286  0.71948  0.67424  Biso   1.000  H
  O23      1.0000 0.36470  0.00810  0.62236  Biso   1.000  O
  O24      1.0000 0.63530  0.99190  0.37764  Biso   1.000  O
  H23      1.0000 0.30666  0.00466  0.69242  Biso   1.000  H
  H24      1.0000 0.69334  0.99534  0.30758  Biso   1.000  H
  H25      1.0000 0.43752  0.03186  0.63375  Biso   1.000  H
  H26      1.0000 0.56248  0.96814  0.36625  Biso   1.000  H
  O25      1.0000 0.26820  0.70120  0.83440  Biso   1.000  O
  O26      1.0000 0.73180  0.29880  0.16560  Biso   1.000  O
  H27      1.0000 0.33198  0.72933  0.75829  Biso   1.000  H
  H28      1.0000 0.66802  0.27067  0.24171  Biso   1.000  H
  H29      1.0000 0.26766  0.76932  0.86723  Biso   1.000  H
  H30      1.0000 0.73234  0.23068  0.13277  Biso   1.000  H
  O27      1.0000 0.36630  0.41073  0.02467  Biso   1.000  O
  O28      1.0000 0.63370  0.58927  0.97533  Biso   1.000  O
  H31      1.0000 0.44503  0.38556  0.98744  Biso   1.000  H
  H32      1.0000 0.55497  0.61444  0.01256  Biso   1.000  H
  H33      1.0000 0.31397  0.35161  0.03329  Biso   1.000  H
  H34      1.0000 0.68603  0.64839  0.96671  Biso   1.000  H
  O29      1.0000 0.12700  0.46600  0.92110  Biso   1.000  O
  O30      1.0000 0.87300  0.53400  0.07890  Biso   1.000  O
  H35      1.0000 0.14885  0.40288  0.88910  Biso   1.000  H
  H36      1.0000 0.85115  0.59712  0.11090  Biso   1.000  H
  H37      1.0000 0.08468  0.51142  0.87144  Biso   1.000  H
  H38      1.0000 0.91532  0.48858  0.12856  Biso   1.000  H
