data_image0
_cell_length_a       7.6268
_cell_length_b       8.7596
_cell_length_c       9.2748
_cell_angle_alpha    72.34
_cell_angle_beta     70.924
_cell_angle_gamma    67.088

_symmetry_space_group_name_H-M    "P 1"
_symmetry_int_tables_number       1

loop_
  _symmetry_equiv_pos_as_xyz
  'x, y, z'

loop_
  _atom_site_label
  _atom_site_occupancy
  _atom_site_fract_x
  _atom_site_fract_y
  _atom_site_fract_z
  _atom_site_thermal_displace_type
  _atom_site_B_iso_or_equiv
  _atom_site_type_symbol
  Cu1      1.0000 0.49338  0.00929  0.16740  Biso   1.000  Cu
  Cu2      1.0000 0.50662  0.99071  0.83260  Biso   1.000  Cu
  Cl1      1.0000 0.23473  0.09623  0.04717  Biso   1.000  Cl
  Cl2      1.0000 0.76527  0.90377  0.95283  Biso   1.000  Cl
  S1       1.0000 0.48155  0.83011  0.40054  Biso   1.000  S
  S2       1.0000 0.51845  0.16989  0.59946  Biso   1.000  S
  C1       1.0000 0.69030  0.79560  0.45150  Biso   1.000  C
  C2       1.0000 0.30970  0.20440  0.54850  Biso   1.000  C
  C3       1.0000 0.85590  0.83810  0.34730  Biso   1.000  C
  C4       1.0000 0.14410  0.16190  0.65270  Biso   1.000  C
  C5       1.0000 0.01300  0.81930  0.39640  Biso   1.000  C
  C6       1.0000 0.98700  0.18070  0.60360  Biso   1.000  C
  C7       1.0000 0.01850  0.75470  0.55300  Biso   1.000  C
  C8       1.0000 0.98150  0.24530  0.44700  Biso   1.000  C
  C9       1.0000 0.86330  0.70950  0.65250  Biso   1.000  C
  C10      1.0000 0.13670  0.29050  0.34750  Biso   1.000  C
  N1       1.0000 0.70620  0.72680  0.60280  Biso   1.000  N
  N2       1.0000 0.29380  0.27320  0.39720  Biso   1.000  N
  N3       1.0000 0.44560  0.77610  0.82410  Biso   1.000  N
  N4       1.0000 0.55440  0.22390  0.17590  Biso   1.000  N
  C11      1.0000 0.29440  0.73390  0.93210  Biso   1.000  C
  C12      1.0000 0.70560  0.26610  0.06790  Biso   1.000  C
  C13      1.0000 0.24610  0.59560  0.93790  Biso   1.000  C
  C14      1.0000 0.75390  0.40440  0.06210  Biso   1.000  C
  C15      1.0000 0.35620  0.49310  0.83210  Biso   1.000  C
  C16      1.0000 0.64380  0.50690  0.16790  Biso   1.000  C
  C17      1.0000 0.51000  0.53580  0.71890  Biso   1.000  C
  C18      1.0000 0.49000  0.46420  0.28110  Biso   1.000  C
  C19      1.0000 0.54540  0.67840  0.71950  Biso   1.000  C
  C20      1.0000 0.45460  0.32160  0.28050  Biso   1.000  C
  H1       1.0000 0.85600  0.66300  0.76100  Biso   1.000  H
  H2       1.0000 0.14400  0.33700  0.23900  Biso   1.000  H
  H3       1.0000 0.22200  0.80300  0.01000  Biso   1.000  H
  H4       1.0000 0.77800  0.19700  0.99000  Biso   1.000  H
  H5       1.0000 0.12300  0.85100  0.32400  Biso   1.000  H
  H6       1.0000 0.87700  0.14900  0.67600  Biso   1.000  H
  H7       1.0000 0.14400  0.57300  0.01600  Biso   1.000  H
  H8       1.0000 0.85600  0.42700  0.98400  Biso   1.000  H
  H9       1.0000 0.32600  0.39200  0.83400  Biso   1.000  H
  H10      1.0000 0.67400  0.60800  0.16600  Biso   1.000  H
  H11      1.0000 0.59000  0.47500  0.64200  Biso   1.000  H
  H12      1.0000 0.41000  0.52500  0.35800  Biso   1.000  H
  H13      1.0000 0.85100  0.88400  0.24600  Biso   1.000  H
  H14      1.0000 0.14900  0.11600  0.75400  Biso   1.000  H
  H15      1.0000 0.11400  0.74800  0.59500  Biso   1.000  H
  H16      1.0000 0.88600  0.25200  0.40500  Biso   1.000  H
