data_image0
_cell_length_a       11.4068
_cell_length_b       12.8284
_cell_length_c       13.3469
_cell_angle_alpha    90
_cell_angle_beta     90
_cell_angle_gamma    90

_symmetry_space_group_name_H-M    "P 1"
_symmetry_int_tables_number       1

loop_
  _symmetry_equiv_pos_as_xyz
  'x, y, z'

loop_
  _atom_site_label
  _atom_site_occupancy
  _atom_site_fract_x
  _atom_site_fract_y
  _atom_site_fract_z
  _atom_site_thermal_displace_type
  _atom_site_B_iso_or_equiv
  _atom_site_type_symbol
  Mn1      1.0000 0.44258  0.49988  0.70569  Biso   1.000  Mn
  Mn2      1.0000 0.94258  0.50012  0.29431  Biso   1.000  Mn
  Mn3      1.0000 0.94258  0.49988  0.79431  Biso   1.000  Mn
  Mn4      1.0000 0.44258  0.50012  0.20569  Biso   1.000  Mn
  Cl1      1.0000 0.62450  0.00664  0.49231  Biso   1.000  Cl
  Cl2      1.0000 0.12450  0.99336  0.50769  Biso   1.000  Cl
  Cl3      1.0000 0.12450  0.00664  0.00769  Biso   1.000  Cl
  Cl4      1.0000 0.62450  0.99336  0.99231  Biso   1.000  Cl
  Cl5      1.0000 0.31251  0.04435  0.78328  Biso   1.000  Cl
  Cl6      1.0000 0.81251  0.95565  0.21672  Biso   1.000  Cl
  Cl7      1.0000 0.81251  0.04435  0.71672  Biso   1.000  Cl
  Cl8      1.0000 0.31251  0.95565  0.28328  Biso   1.000  Cl
  O1       1.0000 0.51600  0.44005  0.59476  Biso   1.000  O
  O2       1.0000 0.01600  0.55995  0.40524  Biso   1.000  O
  O3       1.0000 0.01600  0.44005  0.90524  Biso   1.000  O
  O4       1.0000 0.51600  0.55995  0.09476  Biso   1.000  O
  O5       1.0000 0.41810  0.62480  0.63774  Biso   1.000  O
  O6       1.0000 0.91810  0.37520  0.36226  Biso   1.000  O
  O7       1.0000 0.91810  0.62480  0.86226  Biso   1.000  O
  O8       1.0000 0.41810  0.37520  0.13774  Biso   1.000  O
  N1       1.0000 0.46590  0.37070  0.78580  Biso   1.000  N
  N2       1.0000 0.96590  0.62930  0.21420  Biso   1.000  N
  N3       1.0000 0.96590  0.37070  0.71420  Biso   1.000  N
  N4       1.0000 0.46590  0.62930  0.28580  Biso   1.000  N
  N5       1.0000 0.36180  0.55450  0.82820  Biso   1.000  N
  N6       1.0000 0.86180  0.44550  0.17180  Biso   1.000  N
  N7       1.0000 0.86180  0.55450  0.67180  Biso   1.000  N
  N8       1.0000 0.36180  0.44550  0.32820  Biso   1.000  N
  N9       1.0000 0.25620  0.43970  0.66180  Biso   1.000  N
  N10      1.0000 0.75620  0.56030  0.33820  Biso   1.000  N
  N11      1.0000 0.75620  0.43970  0.83820  Biso   1.000  N
  N12      1.0000 0.25620  0.56030  0.16180  Biso   1.000  N
  N13      1.0000 0.18370  0.49620  0.69350  Biso   1.000  N
  N14      1.0000 0.68370  0.50380  0.30650  Biso   1.000  N
  N15      1.0000 0.68370  0.49620  0.80650  Biso   1.000  N
  N16      1.0000 0.18370  0.50380  0.19350  Biso   1.000  N
  N17      1.0000 0.11310  0.55500  0.72660  Biso   1.000  N
  N18      1.0000 0.61310  0.44500  0.27340  Biso   1.000  N
  N19      1.0000 0.61310  0.55500  0.77340  Biso   1.000  N
  N20      1.0000 0.11310  0.44500  0.22660  Biso   1.000  N
  C1       1.0000 0.53940  0.34040  0.57850  Biso   1.000  C
  C2       1.0000 0.03940  0.65960  0.42150  Biso   1.000  C
  C3       1.0000 0.03940  0.34040  0.92150  Biso   1.000  C
  C4       1.0000 0.53940  0.65960  0.07850  Biso   1.000  C
  C5       1.0000 0.56890  0.31320  0.47920  Biso   1.000  C
  C6       1.0000 0.06890  0.68680  0.52080  Biso   1.000  C
  C7       1.0000 0.06890  0.31320  0.02080  Biso   1.000  C
  C8       1.0000 0.56890  0.68680  0.97920  Biso   1.000  C
  H1       1.0000 0.57070  0.36580  0.42910  Biso   1.000  H
  H2       1.0000 0.07070  0.63420  0.57090  Biso   1.000  H
  H3       1.0000 0.07070  0.36580  0.07090  Biso   1.000  H
  H4       1.0000 0.57070  0.63420  0.92910  Biso   1.000  H
  C9       1.0000 0.59530  0.21170  0.45340  Biso   1.000  C
  C10      1.0000 0.09530  0.78830  0.54660  Biso   1.000  C
  C11      1.0000 0.09530  0.21170  0.04660  Biso   1.000  C
  C12      1.0000 0.59530  0.78830  0.95340  Biso   1.000  C
  H5       1.0000 0.61430  0.19450  0.38610  Biso   1.000  H
  H6       1.0000 0.11430  0.80550  0.61390  Biso   1.000  H
  H7       1.0000 0.11430  0.19450  0.11390  Biso   1.000  H
  H8       1.0000 0.61430  0.80550  0.88610  Biso   1.000  H
  C13      1.0000 0.59370  0.13580  0.52600  Biso   1.000  C
  C14      1.0000 0.09370  0.86420  0.47400  Biso   1.000  C
  C15      1.0000 0.09370  0.13580  0.97400  Biso   1.000  C
  C16      1.0000 0.59370  0.86420  0.02600  Biso   1.000  C
  C17      1.0000 0.56880  0.15990  0.62470  Biso   1.000  C
  C18      1.0000 0.06880  0.84010  0.37530  Biso   1.000  C
  C19      1.0000 0.06880  0.15990  0.87530  Biso   1.000  C
  C20      1.0000 0.56880  0.84010  0.12470  Biso   1.000  C
  H9       1.0000 0.56950  0.10630  0.67380  Biso   1.000  H
  H10      1.0000 0.06950  0.89370  0.32620  Biso   1.000  H
  H11      1.0000 0.06950  0.10630  0.82620  Biso   1.000  H
  H12      1.0000 0.56950  0.89370  0.17380  Biso   1.000  H
  C21      1.0000 0.54240  0.26260  0.65330  Biso   1.000  C
  C22      1.0000 0.04240  0.73740  0.34670  Biso   1.000  C
  C23      1.0000 0.04240  0.26260  0.84670  Biso   1.000  C
  C24      1.0000 0.54240  0.73740  0.15330  Biso   1.000  C
  C25      1.0000 0.51930  0.28580  0.75960  Biso   1.000  C
  C26      1.0000 0.01930  0.71420  0.24040  Biso   1.000  C
  C27      1.0000 0.01930  0.28580  0.74040  Biso   1.000  C
  C28      1.0000 0.51930  0.71420  0.25960  Biso   1.000  C
  C29      1.0000 0.43680  0.39010  0.89240  Biso   1.000  C
  C30      1.0000 0.93680  0.60990  0.10760  Biso   1.000  C
  C31      1.0000 0.93680  0.39010  0.60760  Biso   1.000  C
  C32      1.0000 0.43680  0.60990  0.39240  Biso   1.000  C
  H13      1.0000 0.50640  0.41770  0.92790  Biso   1.000  H
  H14      1.0000 0.00640  0.58230  0.07210  Biso   1.000  H
  H15      1.0000 0.00640  0.41770  0.57210  Biso   1.000  H
  H16      1.0000 0.50640  0.58230  0.42790  Biso   1.000  H
  H17      1.0000 0.41330  0.32400  0.92500  Biso   1.000  H
  H18      1.0000 0.91330  0.67600  0.07500  Biso   1.000  H
  H19      1.0000 0.91330  0.32400  0.57500  Biso   1.000  H
  H20      1.0000 0.41330  0.67600  0.42500  Biso   1.000  H
  C33      1.0000 0.33770  0.46780  0.89830  Biso   1.000  C
  C34      1.0000 0.83770  0.53220  0.10170  Biso   1.000  C
  C35      1.0000 0.83770  0.46780  0.60170  Biso   1.000  C
  C36      1.0000 0.33770  0.53220  0.39830  Biso   1.000  C
  H21      1.0000 0.26290  0.43360  0.88020  Biso   1.000  H
  H22      1.0000 0.76290  0.56640  0.11980  Biso   1.000  H
  H23      1.0000 0.76290  0.43360  0.61980  Biso   1.000  H
  H24      1.0000 0.26290  0.56640  0.38020  Biso   1.000  H
  H25      1.0000 0.33080  0.49490  0.96750  Biso   1.000  H
  H26      1.0000 0.83080  0.50510  0.03250  Biso   1.000  H
  H27      1.0000 0.83080  0.49490  0.53250  Biso   1.000  H
  H28      1.0000 0.33080  0.50510  0.46750  Biso   1.000  H
  C37      1.0000 0.56160  0.20930  0.83710  Biso   1.000  C
  C38      1.0000 0.06160  0.79070  0.16290  Biso   1.000  C
  C39      1.0000 0.06160  0.20930  0.66290  Biso   1.000  C
  C40      1.0000 0.56160  0.79070  0.33710  Biso   1.000  C
  H29      1.0000 0.59220  0.24730  0.89520  Biso   1.000  H
  H30      1.0000 0.09220  0.75270  0.10480  Biso   1.000  H
  H31      1.0000 0.09220  0.24730  0.60480  Biso   1.000  H
  H32      1.0000 0.59220  0.75270  0.39520  Biso   1.000  H
  H33      1.0000 0.62380  0.16590  0.80840  Biso   1.000  H
  H34      1.0000 0.12380  0.83410  0.19160  Biso   1.000  H
  H35      1.0000 0.12380  0.16590  0.69160  Biso   1.000  H
  H36      1.0000 0.62380  0.83410  0.30840  Biso   1.000  H
  H37      1.0000 0.49620  0.16490  0.85820  Biso   1.000  H
  H38      1.0000 0.99620  0.83510  0.14180  Biso   1.000  H
  H39      1.0000 0.99620  0.16490  0.64180  Biso   1.000  H
  H40      1.0000 0.49620  0.83510  0.35820  Biso   1.000  H
  C41      1.0000 0.31560  0.64520  0.84100  Biso   1.000  C
  C42      1.0000 0.81560  0.35480  0.15900  Biso   1.000  C
  C43      1.0000 0.81560  0.64520  0.65900  Biso   1.000  C
  C44      1.0000 0.31560  0.35480  0.34100  Biso   1.000  C
  C45      1.0000 0.34320  0.73210  0.77300  Biso   1.000  C
  C46      1.0000 0.84320  0.26790  0.22700  Biso   1.000  C
  C47      1.0000 0.84320  0.73210  0.72700  Biso   1.000  C
  C48      1.0000 0.34320  0.26790  0.27300  Biso   1.000  C
  C49      1.0000 0.31840  0.83540  0.80350  Biso   1.000  C
  C50      1.0000 0.81840  0.16460  0.19650  Biso   1.000  C
  C51      1.0000 0.81840  0.83540  0.69650  Biso   1.000  C
  C52      1.0000 0.31840  0.16460  0.30350  Biso   1.000  C
  H41      1.0000 0.28370  0.84720  0.86720  Biso   1.000  H
  H42      1.0000 0.78370  0.15280  0.13280  Biso   1.000  H
  H43      1.0000 0.78370  0.84720  0.63280  Biso   1.000  H
  H44      1.0000 0.28370  0.15280  0.36720  Biso   1.000  H
  C53      1.0000 0.34330  0.91800  0.74350  Biso   1.000  C
  C54      1.0000 0.84330  0.08200  0.25650  Biso   1.000  C
  C55      1.0000 0.84330  0.91800  0.75650  Biso   1.000  C
  C56      1.0000 0.34330  0.08200  0.24350  Biso   1.000  C
  C57      1.0000 0.39330  0.90470  0.64880  Biso   1.000  C
  C58      1.0000 0.89330  0.09530  0.35120  Biso   1.000  C
  C59      1.0000 0.89330  0.90470  0.85120  Biso   1.000  C
  C60      1.0000 0.39330  0.09530  0.14880  Biso   1.000  C
  H45      1.0000 0.40930  0.96300  0.60700  Biso   1.000  H
  H46      1.0000 0.90930  0.03700  0.39300  Biso   1.000  H
  H47      1.0000 0.90930  0.96300  0.89300  Biso   1.000  H
  H48      1.0000 0.40930  0.03700  0.10700  Biso   1.000  H
  C61      1.0000 0.41870  0.80510  0.61780  Biso   1.000  C
  C62      1.0000 0.91870  0.19490  0.38220  Biso   1.000  C
  C63      1.0000 0.91870  0.80510  0.88220  Biso   1.000  C
  C64      1.0000 0.41870  0.19490  0.11780  Biso   1.000  C
  H49      1.0000 0.45410  0.79550  0.55410  Biso   1.000  H
  H50      1.0000 0.95410  0.20450  0.44590  Biso   1.000  H
  H51      1.0000 0.95410  0.79550  0.94590  Biso   1.000  H
  H52      1.0000 0.45410  0.20450  0.05410  Biso   1.000  H
  C65      1.0000 0.39430  0.71660  0.67690  Biso   1.000  C
  C66      1.0000 0.89430  0.28340  0.32310  Biso   1.000  C
  C67      1.0000 0.89430  0.71660  0.82310  Biso   1.000  C
  C68      1.0000 0.39430  0.28340  0.17690  Biso   1.000  C
  C69      1.0000 0.23380  0.66440  0.92750  Biso   1.000  C
  C70      1.0000 0.73380  0.33560  0.07250  Biso   1.000  C
  C71      1.0000 0.73380  0.66440  0.57250  Biso   1.000  C
  C72      1.0000 0.23380  0.33560  0.42750  Biso   1.000  C
  H53      1.0000 0.18650  0.60190  0.93950  Biso   1.000  H
  H54      1.0000 0.68650  0.39810  0.06050  Biso   1.000  H
  H55      1.0000 0.68650  0.60190  0.56050  Biso   1.000  H
  H56      1.0000 0.18650  0.39810  0.43950  Biso   1.000  H
  H57      1.0000 0.18210  0.72320  0.91160  Biso   1.000  H
  H58      1.0000 0.68210  0.27680  0.08840  Biso   1.000  H
  H59      1.0000 0.68210  0.72320  0.58840  Biso   1.000  H
  H60      1.0000 0.18210  0.27680  0.41160  Biso   1.000  H
  H61      1.0000 0.27950  0.68060  0.98770  Biso   1.000  H
  H62      1.0000 0.77950  0.31940  0.01230  Biso   1.000  H
  H63      1.0000 0.77950  0.68060  0.51230  Biso   1.000  H
  H64      1.0000 0.27950  0.31940  0.48770  Biso   1.000  H
