# generated using pymatgen
data_ZnCu4H14(C13N5)2
_symmetry_space_group_name_H-M   'P 1'
_cell_length_a   14.64650000
_cell_length_b   14.64650000
_cell_length_c   41.97400000
_cell_angle_alpha   90.00000000
_cell_angle_beta   90.00000000
_cell_angle_gamma   120.00000000
_symmetry_Int_Tables_number   1
_chemical_formula_structural   ZnCu4H14(C13N5)2
_chemical_formula_sum   'Zn12 Cu48 H168 C312 N120'
_cell_volume   7797.91867779
_cell_formula_units_Z   12
loop_
 _symmetry_equiv_pos_site_id
 _symmetry_equiv_pos_as_xyz
  1  'x, y, z'
loop_
 _atom_site_type_symbol
 _atom_site_label
 _atom_site_symmetry_multiplicity
 _atom_site_fract_x
 _atom_site_fract_y
 _atom_site_fract_z
 _atom_site_occupancy
  Zn  Zn0  1  0.269010  0.326340  0.010610  1.0
  Zn  Zn1  1  0.673660  0.942670  0.343940  1.0
  Zn  Zn2  1  0.057330  0.730990  0.677270  1.0
  Zn  Zn3  1  0.730990  0.673660  0.510610  1.0
  Zn  Zn4  1  0.326340  0.057330  0.843940  1.0
  Zn  Zn5  1  0.942670  0.269010  0.177270  1.0
  Zn  Zn6  1  0.326340  0.269010  0.322730  1.0
  Zn  Zn7  1  0.942670  0.673660  0.989390  1.0
  Zn  Zn8  1  0.730990  0.057330  0.656060  1.0
  Zn  Zn9  1  0.673660  0.730990  0.822730  1.0
  Zn  Zn10  1  0.057330  0.326340  0.489390  1.0
  Zn  Zn11  1  0.269010  0.942670  0.156060  1.0
  Cu  Cu12  1  0.277820  0.469270  0.122140  1.0
  Cu  Cu13  1  0.530730  0.808550  0.455480  1.0
  Cu  Cu14  1  0.191450  0.722180  0.788810  1.0
  Cu  Cu15  1  0.722180  0.530730  0.622140  1.0
  Cu  Cu16  1  0.469270  0.191450  0.955480  1.0
  Cu  Cu17  1  0.808550  0.277820  0.288810  1.0
  Cu  Cu18  1  0.469270  0.277820  0.211190  1.0
  Cu  Cu19  1  0.808550  0.530730  0.877860  1.0
  Cu  Cu20  1  0.722180  0.191450  0.544520  1.0
  Cu  Cu21  1  0.530730  0.722180  0.711190  1.0
  Cu  Cu22  1  0.191450  0.469270  0.377860  1.0
  Cu  Cu23  1  0.277820  0.808550  0.044520  1.0
  Cu  Cu24  1  0.098110  0.385300  0.090480  1.0
  Cu  Cu25  1  0.614700  0.712810  0.423810  1.0
  Cu  Cu26  1  0.287190  0.901890  0.757150  1.0
  Cu  Cu27  1  0.901890  0.614700  0.590480  1.0
  Cu  Cu28  1  0.385300  0.287190  0.923810  1.0
  Cu  Cu29  1  0.712810  0.098110  0.257150  1.0
  Cu  Cu30  1  0.385300  0.098110  0.242850  1.0
  Cu  Cu31  1  0.712810  0.614700  0.909520  1.0
  Cu  Cu32  1  0.901890  0.287190  0.576190  1.0
  Cu  Cu33  1  0.614700  0.901890  0.742850  1.0
  Cu  Cu34  1  0.287190  0.385300  0.409520  1.0
  Cu  Cu35  1  0.098110  0.712810  0.076190  1.0
  Cu  Cu36  1  0.758600  0.049940  0.078660  1.0
  Cu  Cu37  1  0.950060  0.708660  0.411990  1.0
  Cu  Cu38  1  0.291340  0.241400  0.745330  1.0
  Cu  Cu39  1  0.241400  0.950060  0.578660  1.0
  Cu  Cu40  1  0.049940  0.291340  0.911990  1.0
  Cu  Cu41  1  0.708660  0.758600  0.245330  1.0
  Cu  Cu42  1  0.049940  0.758600  0.254670  1.0
  Cu  Cu43  1  0.708660  0.950060  0.921340  1.0
  Cu  Cu44  1  0.241400  0.291340  0.588010  1.0
  Cu  Cu45  1  0.950060  0.241400  0.754670  1.0
  Cu  Cu46  1  0.291340  0.049940  0.421340  1.0
  Cu  Cu47  1  0.758600  0.708660  0.088010  1.0
  Cu  Cu48  1  0.435330  0.070170  0.054090  1.0
  Cu  Cu49  1  0.929830  0.365160  0.387430  1.0
  Cu  Cu50  1  0.634840  0.564670  0.720760  1.0
  Cu  Cu51  1  0.564670  0.929830  0.554100  1.0
  Cu  Cu52  1  0.070170  0.634840  0.887430  1.0
  Cu  Cu53  1  0.365160  0.435330  0.220760  1.0
  Cu  Cu54  1  0.070170  0.435330  0.279240  1.0
  Cu  Cu55  1  0.365160  0.929830  0.945900  1.0
  Cu  Cu56  1  0.564670  0.634840  0.612570  1.0
  Cu  Cu57  1  0.929830  0.564670  0.779240  1.0
  Cu  Cu58  1  0.634840  0.070170  0.445900  1.0
  Cu  Cu59  1  0.435330  0.365160  0.112570  1.0
  H  H60  1  0.146400  0.270200  0.201000  1.0
  H  H61  1  0.729800  0.876200  0.534330  1.0
  H  H62  1  0.123800  0.853600  0.867670  1.0
  H  H63  1  0.853600  0.729800  0.701000  1.0
  H  H64  1  0.270200  0.123800  0.034330  1.0
  H  H65  1  0.876200  0.146400  0.367670  1.0
  H  H66  1  0.270200  0.146400  0.132330  1.0
  H  H67  1  0.876200  0.729800  0.799000  1.0
  H  H68  1  0.853600  0.123800  0.465670  1.0
  H  H69  1  0.729800  0.853600  0.632330  1.0
  H  H70  1  0.123800  0.270200  0.299000  1.0
  H  H71  1  0.146400  0.876200  0.965670  1.0
  H  H72  1  0.193800  0.150400  0.218500  1.0
  H  H73  1  0.849600  0.043400  0.551830  1.0
  H  H74  1  0.956600  0.806200  0.885170  1.0
  H  H75  1  0.806200  0.849600  0.718500  1.0
  H  H76  1  0.150400  0.956600  0.051830  1.0
  H  H77  1  0.043400  0.193800  0.385170  1.0
  H  H78  1  0.150400  0.193800  0.114830  1.0
  H  H79  1  0.043400  0.849600  0.781500  1.0
  H  H80  1  0.806200  0.956600  0.448170  1.0
  H  H81  1  0.849600  0.806200  0.614830  1.0
  H  H82  1  0.956600  0.150400  0.281500  1.0
  H  H83  1  0.193800  0.043400  0.948170  1.0
  H  H84  1  0.066400  0.972800  0.221200  1.0
  H  H85  1  0.027200  0.093600  0.554530  1.0
  H  H86  1  0.906400  0.933600  0.887870  1.0
  H  H87  1  0.933600  0.027200  0.721200  1.0
  H  H88  1  0.972800  0.906400  0.054530  1.0
  H  H89  1  0.093600  0.066400  0.387870  1.0
  H  H90  1  0.972800  0.066400  0.112130  1.0
  H  H91  1  0.093600  0.027200  0.778800  1.0
  H  H92  1  0.933600  0.906400  0.445470  1.0
  H  H93  1  0.027200  0.933600  0.612130  1.0
  H  H94  1  0.906400  0.972800  0.278800  1.0
  H  H95  1  0.066400  0.093600  0.945470  1.0
  H  H96  1  0.895400  0.919500  0.204300  1.0
  H  H97  1  0.080500  0.975900  0.537630  1.0
  H  H98  1  0.024100  0.104600  0.870970  1.0
  H  H99  1  0.104600  0.080500  0.704300  1.0
  H  H100  1  0.919500  0.024100  0.037630  1.0
  H  H101  1  0.975900  0.895400  0.370970  1.0
  H  H102  1  0.919500  0.895400  0.129030  1.0
  H  H103  1  0.975900  0.080500  0.795700  1.0
  H  H104  1  0.104600  0.024100  0.462370  1.0
  H  H105  1  0.080500  0.104600  0.629030  1.0
  H  H106  1  0.024100  0.919500  0.295700  1.0
  H  H107  1  0.895400  0.975900  0.962370  1.0
  H  H108  1  0.747200  0.882600  0.175400  1.0
  H  H109  1  0.117400  0.864600  0.508730  1.0
  H  H110  1  0.135400  0.252800  0.842070  1.0
  H  H111  1  0.252800  0.117400  0.675400  1.0
  H  H112  1  0.882600  0.135400  0.008730  1.0
  H  H113  1  0.864600  0.747200  0.342070  1.0
  H  H114  1  0.882600  0.747200  0.157930  1.0
  H  H115  1  0.864600  0.117400  0.824600  1.0
  H  H116  1  0.252800  0.135400  0.491270  1.0
  H  H117  1  0.117400  0.252800  0.657930  1.0
  H  H118  1  0.135400  0.882600  0.324600  1.0
  H  H119  1  0.747200  0.864600  0.991270  1.0
  H  H120  1  0.588200  0.013400  0.137100  1.0
  H  H121  1  0.986600  0.574800  0.470430  1.0
  H  H122  1  0.425200  0.411800  0.803770  1.0
  H  H123  1  0.411800  0.986600  0.637100  1.0
  H  H124  1  0.013400  0.425200  0.970430  1.0
  H  H125  1  0.574800  0.588200  0.303770  1.0
  H  H126  1  0.013400  0.588200  0.196230  1.0
  H  H127  1  0.574800  0.986600  0.862900  1.0
  H  H128  1  0.411800  0.425200  0.529570  1.0
  H  H129  1  0.986600  0.411800  0.696230  1.0
  H  H130  1  0.425200  0.013400  0.362900  1.0
  H  H131  1  0.588200  0.574800  0.029570  1.0
  H  H132  1  0.596300  0.179400  0.131400  1.0
  H  H133  1  0.820600  0.416900  0.464730  1.0
  H  H134  1  0.583100  0.403700  0.798070  1.0
  H  H135  1  0.403700  0.820600  0.631400  1.0
  H  H136  1  0.179400  0.583100  0.964730  1.0
  H  H137  1  0.416900  0.596300  0.298070  1.0
  H  H138  1  0.179400  0.596300  0.201930  1.0
  H  H139  1  0.416900  0.820600  0.868600  1.0
  H  H140  1  0.403700  0.583100  0.535270  1.0
  H  H141  1  0.820600  0.403700  0.701930  1.0
  H  H142  1  0.583100  0.179400  0.368600  1.0
  H  H143  1  0.596300  0.416900  0.035270  1.0
  H  H144  1  0.637000  0.345000  0.114000  1.0
  H  H145  1  0.655000  0.292000  0.447330  1.0
  H  H146  1  0.708000  0.363000  0.780670  1.0
  H  H147  1  0.363000  0.655000  0.614000  1.0
  H  H148  1  0.345000  0.708000  0.947330  1.0
  H  H149  1  0.292000  0.637000  0.280670  1.0
  H  H150  1  0.345000  0.637000  0.219330  1.0
  H  H151  1  0.292000  0.655000  0.886000  1.0
  H  H152  1  0.363000  0.708000  0.552670  1.0
  H  H153  1  0.655000  0.363000  0.719330  1.0
  H  H154  1  0.708000  0.345000  0.386000  1.0
  H  H155  1  0.637000  0.292000  0.052670  1.0
  H  H156  1  0.809700  0.481900  0.115800  1.0
  H  H157  1  0.518100  0.327800  0.449130  1.0
  H  H158  1  0.672200  0.190300  0.782470  1.0
  H  H159  1  0.190300  0.518100  0.615800  1.0
  H  H160  1  0.481900  0.672200  0.949130  1.0
  H  H161  1  0.327800  0.809700  0.282470  1.0
  H  H162  1  0.481900  0.809700  0.217530  1.0
  H  H163  1  0.327800  0.518100  0.884200  1.0
  H  H164  1  0.190300  0.672200  0.550870  1.0
  H  H165  1  0.518100  0.190300  0.717530  1.0
  H  H166  1  0.672200  0.481900  0.384200  1.0
  H  H167  1  0.809700  0.327800  0.050870  1.0
  H  H168  1  0.936400  0.454200  0.139800  1.0
  H  H169  1  0.545800  0.482200  0.473130  1.0
  H  H170  1  0.517800  0.063600  0.806470  1.0
  H  H171  1  0.063600  0.545800  0.639800  1.0
  H  H172  1  0.454200  0.517800  0.973130  1.0
  H  H173  1  0.482200  0.936400  0.306470  1.0
  H  H174  1  0.454200  0.936400  0.193530  1.0
  H  H175  1  0.482200  0.545800  0.860200  1.0
  H  H176  1  0.063600  0.517800  0.526870  1.0
  H  H177  1  0.545800  0.063600  0.693530  1.0
  H  H178  1  0.517800  0.454200  0.360200  1.0
  H  H179  1  0.936400  0.482200  0.026870  1.0
  H  H180  1  0.474700  0.863600  0.119700  1.0
  H  H181  1  0.136400  0.611100  0.453030  1.0
  H  H182  1  0.388900  0.525300  0.786370  1.0
  H  H183  1  0.525300  0.136400  0.619700  1.0
  H  H184  1  0.863600  0.388900  0.953030  1.0
  H  H185  1  0.611100  0.474700  0.286370  1.0
  H  H186  1  0.863600  0.474700  0.213630  1.0
  H  H187  1  0.611100  0.136400  0.880300  1.0
  H  H188  1  0.525300  0.388900  0.546970  1.0
  H  H189  1  0.136400  0.525300  0.713630  1.0
  H  H190  1  0.388900  0.863600  0.380300  1.0
  H  H191  1  0.474700  0.611100  0.046970  1.0
  H  H192  1  0.338800  0.696300  0.111400  1.0
  H  H193  1  0.303700  0.642500  0.444730  1.0
  H  H194  1  0.357500  0.661200  0.778070  1.0
  H  H195  1  0.661200  0.303700  0.611400  1.0
  H  H196  1  0.696300  0.357500  0.944730  1.0
  H  H197  1  0.642500  0.338800  0.278070  1.0
  H  H198  1  0.696300  0.338800  0.221930  1.0
  H  H199  1  0.642500  0.303700  0.888600  1.0
  H  H200  1  0.661200  0.357500  0.555270  1.0
  H  H201  1  0.303700  0.661200  0.721930  1.0
  H  H202  1  0.357500  0.696300  0.388600  1.0
  H  H203  1  0.338800  0.642500  0.055270  1.0
  H  H204  1  0.478700  0.573600  0.158100  1.0
  H  H205  1  0.426400  0.905100  0.491430  1.0
  H  H206  1  0.094900  0.521300  0.824770  1.0
  H  H207  1  0.521300  0.426400  0.658100  1.0
  H  H208  1  0.573600  0.094900  0.991430  1.0
  H  H209  1  0.905100  0.478700  0.324770  1.0
  H  H210  1  0.573600  0.478700  0.175230  1.0
  H  H211  1  0.905100  0.426400  0.841900  1.0
  H  H212  1  0.521300  0.094900  0.508570  1.0
  H  H213  1  0.426400  0.521300  0.675230  1.0
  H  H214  1  0.094900  0.573600  0.341900  1.0
  H  H215  1  0.478700  0.905100  0.008570  1.0
  H  H216  1  0.618200  0.739700  0.169700  1.0
  H  H217  1  0.260300  0.878500  0.503030  1.0
  H  H218  1  0.121500  0.381800  0.836370  1.0
  H  H219  1  0.381800  0.260300  0.669700  1.0
  H  H220  1  0.739700  0.121500  0.003030  1.0
  H  H221  1  0.878500  0.618200  0.336370  1.0
  H  H222  1  0.739700  0.618200  0.163630  1.0
  H  H223  1  0.878500  0.260300  0.830300  1.0
  H  H224  1  0.381800  0.121500  0.496970  1.0
  H  H225  1  0.260300  0.381800  0.663630  1.0
  H  H226  1  0.121500  0.739700  0.330300  1.0
  H  H227  1  0.618200  0.878500  0.996970  1.0
  C  C228  1  0.155300  0.419300  0.148620  1.0
  C  C229  1  0.580700  0.736000  0.481950  1.0
  C  C230  1  0.264000  0.844700  0.815290  1.0
  C  C231  1  0.844700  0.580700  0.648620  1.0
  C  C232  1  0.419300  0.264000  0.981950  1.0
  C  C233  1  0.736000  0.155300  0.315290  1.0
  C  C234  1  0.419300  0.155300  0.184710  1.0
  C  C235  1  0.736000  0.580700  0.851380  1.0
  C  C236  1  0.844700  0.264000  0.518050  1.0
  C  C237  1  0.580700  0.844700  0.684710  1.0
  C  C238  1  0.264000  0.419300  0.351380  1.0
  C  C239  1  0.155300  0.736000  0.018050  1.0
  C  C240  1  0.288900  0.418600  0.080620  1.0
  C  C241  1  0.581400  0.870300  0.413950  1.0
  C  C242  1  0.129700  0.711100  0.747290  1.0
  C  C243  1  0.711100  0.581400  0.580620  1.0
  C  C244  1  0.418600  0.129700  0.913950  1.0
  C  C245  1  0.870300  0.288900  0.247290  1.0
  C  C246  1  0.418600  0.288900  0.252710  1.0
  C  C247  1  0.870300  0.581400  0.919380  1.0
  C  C248  1  0.711100  0.129700  0.586050  1.0
  C  C249  1  0.581400  0.711100  0.752710  1.0
  C  C250  1  0.129700  0.418600  0.419380  1.0
  C  C251  1  0.288900  0.870300  0.086050  1.0
  C  C252  1  0.979200  0.251900  0.086490  1.0
  C  C253  1  0.748100  0.727300  0.419820  1.0
  C  C254  1  0.272700  0.020800  0.753160  1.0
  C  C255  1  0.020800  0.748100  0.586490  1.0
  C  C256  1  0.251900  0.272700  0.919820  1.0
  C  C257  1  0.727300  0.979200  0.253160  1.0
  C  C258  1  0.251900  0.979200  0.246840  1.0
  C  C259  1  0.727300  0.748100  0.913510  1.0
  C  C260  1  0.020800  0.272700  0.580180  1.0
  C  C261  1  0.748100  0.020800  0.746840  1.0
  C  C262  1  0.272700  0.251900  0.413510  1.0
  C  C263  1  0.979200  0.727300  0.080180  1.0
  C  C264  1  0.636500  0.058200  0.069010  1.0
  C  C265  1  0.941800  0.578300  0.402340  1.0
  C  C266  1  0.421700  0.363500  0.735680  1.0
  C  C267  1  0.363500  0.941800  0.569010  1.0
  C  C268  1  0.058200  0.421700  0.902340  1.0
  C  C269  1  0.578300  0.636500  0.235680  1.0
  C  C270  1  0.058200  0.636500  0.264320  1.0
  C  C271  1  0.578300  0.941800  0.930990  1.0
  C  C272  1  0.363500  0.421700  0.597660  1.0
  C  C273  1  0.941800  0.363500  0.764320  1.0
  C  C274  1  0.421700  0.058200  0.430990  1.0
  C  C275  1  0.636500  0.578300  0.097660  1.0
  C  C276  1  0.096000  0.198900  0.201350  1.0
  C  C277  1  0.801100  0.897100  0.534680  1.0
  C  C278  1  0.102900  0.904000  0.868020  1.0
  C  C279  1  0.904000  0.801100  0.701350  1.0
  C  C280  1  0.198900  0.102900  0.034680  1.0
  C  C281  1  0.897100  0.096000  0.368020  1.0
  C  C282  1  0.198900  0.096000  0.131980  1.0
  C  C283  1  0.897100  0.801100  0.798650  1.0
  C  C284  1  0.904000  0.102900  0.465320  1.0
  C  C285  1  0.801100  0.904000  0.631980  1.0
  C  C286  1  0.102900  0.198900  0.298650  1.0
  C  C287  1  0.096000  0.897100  0.965320  1.0
  C  C288  1  0.124800  0.127600  0.212200  1.0
  C  C289  1  0.872400  0.997200  0.545530  1.0
  C  C290  1  0.002800  0.875200  0.878870  1.0
  C  C291  1  0.875200  0.872400  0.712200  1.0
  C  C292  1  0.127600  0.002800  0.045530  1.0
  C  C293  1  0.997200  0.124800  0.378870  1.0
  C  C294  1  0.127600  0.124800  0.121130  1.0
  C  C295  1  0.997200  0.872400  0.787800  1.0
  C  C296  1  0.875200  0.002800  0.454470  1.0
  C  C297  1  0.872400  0.875200  0.621130  1.0
  C  C298  1  0.002800  0.127600  0.287800  1.0
  C  C299  1  0.124800  0.997200  0.954470  1.0
  C  C300  1  0.049300  0.022000  0.213540  1.0
  C  C301  1  0.978000  0.027300  0.546870  1.0
  C  C302  1  0.972700  0.950700  0.880210  1.0
  C  C303  1  0.950700  0.978000  0.713540  1.0
  C  C304  1  0.022000  0.972700  0.046870  1.0
  C  C305  1  0.027300  0.049300  0.380210  1.0
  C  C306  1  0.022000  0.049300  0.119790  1.0
  C  C307  1  0.027300  0.978000  0.786460  1.0
  C  C308  1  0.950700  0.972700  0.453130  1.0
  C  C309  1  0.978000  0.950700  0.619790  1.0
  C  C310  1  0.972700  0.022000  0.286460  1.0
  C  C311  1  0.049300  0.027300  0.953130  1.0
  C  C312  1  0.947600  0.990200  0.203280  1.0
  C  C313  1  0.009800  0.957400  0.536610  1.0
  C  C314  1  0.042600  0.052400  0.869950  1.0
  C  C315  1  0.052400  0.009800  0.703280  1.0
  C  C316  1  0.990200  0.042600  0.036610  1.0
  C  C317  1  0.957400  0.947600  0.369950  1.0
  C  C318  1  0.990200  0.947600  0.130050  1.0
  C  C319  1  0.957400  0.009800  0.796720  1.0
  C  C320  1  0.052400  0.042600  0.463390  1.0
  C  C321  1  0.009800  0.052400  0.630050  1.0
  C  C322  1  0.042600  0.990200  0.296720  1.0
  C  C323  1  0.947600  0.957400  0.963390  1.0
  C  C324  1  0.924800  0.064700  0.191610  1.0
  C  C325  1  0.935300  0.860100  0.524940  1.0
  C  C326  1  0.139900  0.075200  0.858280  1.0
  C  C327  1  0.075200  0.935300  0.691610  1.0
  C  C328  1  0.064700  0.139900  0.024940  1.0
  C  C329  1  0.860100  0.924800  0.358280  1.0
  C  C330  1  0.064700  0.924800  0.141720  1.0
  C  C331  1  0.860100  0.935300  0.808390  1.0
  C  C332  1  0.075200  0.139900  0.475060  1.0
  C  C333  1  0.935300  0.075200  0.641720  1.0
  C  C334  1  0.139900  0.064700  0.308390  1.0
  C  C335  1  0.924800  0.860100  0.975060  1.0
  C  C336  1  0.824000  0.041300  0.177040  1.0
  C  C337  1  0.958700  0.782700  0.510370  1.0
  C  C338  1  0.217300  0.176000  0.843710  1.0
  C  C339  1  0.176000  0.958700  0.677040  1.0
  C  C340  1  0.041300  0.217300  0.010370  1.0
  C  C341  1  0.782700  0.824000  0.343710  1.0
  C  C342  1  0.041300  0.824000  0.156290  1.0
  C  C343  1  0.782700  0.958700  0.822960  1.0
  C  C344  1  0.176000  0.217300  0.489630  1.0
  C  C345  1  0.958700  0.176000  0.656290  1.0
  C  C346  1  0.217300  0.041300  0.322960  1.0
  C  C347  1  0.824000  0.782700  0.989630  1.0
  C  C348  1  0.742100  0.941500  0.169870  1.0
  C  C349  1  0.058500  0.800600  0.503200  1.0
  C  C350  1  0.199400  0.257900  0.836540  1.0
  C  C351  1  0.257900  0.058500  0.669870  1.0
  C  C352  1  0.941500  0.199400  0.003200  1.0
  C  C353  1  0.800600  0.742100  0.336540  1.0
  C  C354  1  0.941500  0.742100  0.163460  1.0
  C  C355  1  0.800600  0.058500  0.830130  1.0
  C  C356  1  0.257900  0.199400  0.496800  1.0
  C  C357  1  0.058500  0.257900  0.663460  1.0
  C  C358  1  0.199400  0.941500  0.330130  1.0
  C  C359  1  0.742100  0.800600  0.996800  1.0
  C  C360  1  0.651500  0.928500  0.154370  1.0
  C  C361  1  0.071500  0.723000  0.487700  1.0
  C  C362  1  0.277000  0.348500  0.821040  1.0
  C  C363  1  0.348500  0.071500  0.654370  1.0
  C  C364  1  0.928500  0.277000  0.987700  1.0
  C  C365  1  0.723000  0.651500  0.321040  1.0
  C  C366  1  0.928500  0.651500  0.178960  1.0
  C  C367  1  0.723000  0.071500  0.845630  1.0
  C  C368  1  0.348500  0.277000  0.512300  1.0
  C  C369  1  0.071500  0.348500  0.678960  1.0
  C  C370  1  0.277000  0.928500  0.345630  1.0
  C  C371  1  0.651500  0.723000  0.012300  1.0
  C  C372  1  0.647600  0.019000  0.146980  1.0
  C  C373  1  0.981000  0.628600  0.480310  1.0
  C  C374  1  0.371400  0.352400  0.813650  1.0
  C  C375  1  0.352400  0.981000  0.646980  1.0
  C  C376  1  0.019000  0.371400  0.980310  1.0
  C  C377  1  0.628600  0.647600  0.313650  1.0
  C  C378  1  0.019000  0.647600  0.186350  1.0
  C  C379  1  0.628600  0.981000  0.853020  1.0
  C  C380  1  0.352400  0.371400  0.519690  1.0
  C  C381  1  0.981000  0.352400  0.686350  1.0
  C  C382  1  0.371400  0.019000  0.353020  1.0
  C  C383  1  0.647600  0.628600  0.019690  1.0
  C  C384  1  0.733000  0.118700  0.154440  1.0
  C  C385  1  0.881300  0.614300  0.487770  1.0
  C  C386  1  0.385700  0.267000  0.821110  1.0
  C  C387  1  0.267000  0.881300  0.654440  1.0
  C  C388  1  0.118700  0.385700  0.987770  1.0
  C  C389  1  0.614300  0.733000  0.321110  1.0
  C  C390  1  0.118700  0.733000  0.178890  1.0
  C  C391  1  0.614300  0.881300  0.845560  1.0
  C  C392  1  0.267000  0.385700  0.512230  1.0
  C  C393  1  0.881300  0.267000  0.678890  1.0
  C  C394  1  0.385700  0.118700  0.345560  1.0
  C  C395  1  0.733000  0.614300  0.012230  1.0
  C  C396  1  0.745800  0.221700  0.144990  1.0
  C  C397  1  0.778300  0.524100  0.478320  1.0
  C  C398  1  0.475900  0.254200  0.811660  1.0
  C  C399  1  0.254200  0.778300  0.644990  1.0
  C  C400  1  0.221700  0.475900  0.978320  1.0
  C  C401  1  0.524100  0.745800  0.311660  1.0
  C  C402  1  0.221700  0.745800  0.188340  1.0
  C  C403  1  0.524100  0.778300  0.855010  1.0
  C  C404  1  0.254200  0.475900  0.521680  1.0
  C  C405  1  0.778300  0.254200  0.688340  1.0
  C  C406  1  0.475900  0.221700  0.355010  1.0
  C  C407  1  0.745800  0.524100  0.021680  1.0
  C  C408  1  0.665100  0.235600  0.132580  1.0
  C  C409  1  0.764400  0.429500  0.465910  1.0
  C  C410  1  0.570500  0.334900  0.799250  1.0
  C  C411  1  0.334900  0.764400  0.632580  1.0
  C  C412  1  0.235600  0.570500  0.965910  1.0
  C  C413  1  0.429500  0.665100  0.299250  1.0
  C  C414  1  0.235600  0.665100  0.200750  1.0
  C  C415  1  0.429500  0.764400  0.867420  1.0
  C  C416  1  0.334900  0.570500  0.534090  1.0
  C  C417  1  0.764400  0.334900  0.700750  1.0
  C  C418  1  0.570500  0.235600  0.367420  1.0
  C  C419  1  0.665100  0.429500  0.034090  1.0
  C  C420  1  0.689500  0.333700  0.122220  1.0
  C  C421  1  0.666300  0.355800  0.455550  1.0
  C  C422  1  0.644200  0.310500  0.788890  1.0
  C  C423  1  0.310500  0.666300  0.622220  1.0
  C  C424  1  0.333700  0.644200  0.955550  1.0
  C  C425  1  0.355800  0.689500  0.288890  1.0
  C  C426  1  0.333700  0.689500  0.211110  1.0
  C  C427  1  0.355800  0.666300  0.877780  1.0
  C  C428  1  0.310500  0.644200  0.544450  1.0
  C  C429  1  0.666300  0.310500  0.711110  1.0
  C  C430  1  0.644200  0.333700  0.377780  1.0
  C  C431  1  0.689500  0.355800  0.044450  1.0
  C  C432  1  0.791700  0.415900  0.123920  1.0
  C  C433  1  0.584100  0.375800  0.457250  1.0
  C  C434  1  0.624200  0.208300  0.790590  1.0
  C  C435  1  0.208300  0.584100  0.623920  1.0
  C  C436  1  0.415900  0.624200  0.957250  1.0
  C  C437  1  0.375800  0.791700  0.290590  1.0
  C  C438  1  0.415900  0.791700  0.209410  1.0
  C  C439  1  0.375800  0.584100  0.876080  1.0
  C  C440  1  0.208300  0.624200  0.542750  1.0
  C  C441  1  0.584100  0.208300  0.709410  1.0
  C  C442  1  0.624200  0.415900  0.376080  1.0
  C  C443  1  0.791700  0.375800  0.042750  1.0
  C  C444  1  0.867700  0.398400  0.137930  1.0
  C  C445  1  0.601600  0.469300  0.471260  1.0
  C  C446  1  0.530700  0.132300  0.804600  1.0
  C  C447  1  0.132300  0.601600  0.637930  1.0
  C  C448  1  0.398400  0.530700  0.971260  1.0
  C  C449  1  0.469300  0.867700  0.304600  1.0
  C  C450  1  0.398400  0.867700  0.195400  1.0
  C  C451  1  0.469300  0.601600  0.862070  1.0
  C  C452  1  0.132300  0.530700  0.528740  1.0
  C  C453  1  0.601600  0.132300  0.695400  1.0
  C  C454  1  0.530700  0.398400  0.362070  1.0
  C  C455  1  0.867700  0.469300  0.028740  1.0
  C  C456  1  0.564000  0.820800  0.146090  1.0
  C  C457  1  0.179200  0.743200  0.479420  1.0
  C  C458  1  0.256800  0.436000  0.812760  1.0
  C  C459  1  0.436000  0.179200  0.646090  1.0
  C  C460  1  0.820800  0.256800  0.979420  1.0
  C  C461  1  0.743200  0.564000  0.312760  1.0
  C  C462  1  0.820800  0.564000  0.187240  1.0
  C  C463  1  0.743200  0.179200  0.853910  1.0
  C  C464  1  0.436000  0.256800  0.520580  1.0
  C  C465  1  0.179200  0.436000  0.687240  1.0
  C  C466  1  0.256800  0.820800  0.353910  1.0
  C  C467  1  0.564000  0.743200  0.020580  1.0
  C  C468  1  0.477600  0.806300  0.128020  1.0
  C  C469  1  0.193700  0.671300  0.461350  1.0
  C  C470  1  0.328700  0.522400  0.794690  1.0
  C  C471  1  0.522400  0.193700  0.628020  1.0
  C  C472  1  0.806300  0.328700  0.961350  1.0
  C  C473  1  0.671300  0.477600  0.294690  1.0
  C  C474  1  0.806300  0.477600  0.205310  1.0
  C  C475  1  0.671300  0.193700  0.871980  1.0
  C  C476  1  0.522400  0.328700  0.538650  1.0
  C  C477  1  0.193700  0.522400  0.705310  1.0
  C  C478  1  0.328700  0.806300  0.371980  1.0
  C  C479  1  0.477600  0.671300  0.038650  1.0
  C  C480  1  0.397000  0.705000  0.122850  1.0
  C  C481  1  0.295000  0.692000  0.456180  1.0
  C  C482  1  0.308000  0.603000  0.789520  1.0
  C  C483  1  0.603000  0.295000  0.622850  1.0
  C  C484  1  0.705000  0.308000  0.956180  1.0
  C  C485  1  0.692000  0.397000  0.289520  1.0
  C  C486  1  0.705000  0.397000  0.210480  1.0
  C  C487  1  0.692000  0.295000  0.877150  1.0
  C  C488  1  0.603000  0.308000  0.543820  1.0
  C  C489  1  0.295000  0.603000  0.710480  1.0
  C  C490  1  0.308000  0.705000  0.377150  1.0
  C  C491  1  0.397000  0.692000  0.043820  1.0
  C  C492  1  0.477600  0.632400  0.150290  1.0
  C  C493  1  0.367600  0.845200  0.483620  1.0
  C  C494  1  0.154800  0.522400  0.816960  1.0
  C  C495  1  0.522400  0.367600  0.650290  1.0
  C  C496  1  0.632400  0.154800  0.983620  1.0
  C  C497  1  0.845200  0.477600  0.316960  1.0
  C  C498  1  0.632400  0.477600  0.183040  1.0
  C  C499  1  0.845200  0.367600  0.849710  1.0
  C  C500  1  0.522400  0.154800  0.516380  1.0
  C  C501  1  0.367600  0.522400  0.683040  1.0
  C  C502  1  0.154800  0.632400  0.349710  1.0
  C  C503  1  0.477600  0.845200  0.016380  1.0
  C  C504  1  0.562600  0.733100  0.157320  1.0
  C  C505  1  0.266900  0.829500  0.490650  1.0
  C  C506  1  0.170500  0.437400  0.823990  1.0
  C  C507  1  0.437400  0.266900  0.657320  1.0
  C  C508  1  0.733100  0.170500  0.990650  1.0
  C  C509  1  0.829500  0.562600  0.323990  1.0
  C  C510  1  0.733100  0.562600  0.176010  1.0
  C  C511  1  0.829500  0.266900  0.842680  1.0
  C  C512  1  0.437400  0.170500  0.509350  1.0
  C  C513  1  0.266900  0.437400  0.676010  1.0
  C  C514  1  0.170500  0.733100  0.342680  1.0
  C  C515  1  0.562600  0.829500  0.009350  1.0
  C  C516  1  0.127200  0.525100  0.083980  0.5
  N  N517  1  0.127200  0.525100  0.083980  0.5
  C  C518  1  0.474900  0.602100  0.417310  0.5
  N  N519  1  0.474900  0.602100  0.417310  0.5
  C  C520  1  0.397900  0.872800  0.750650  0.5
  N  N521  1  0.397900  0.872800  0.750650  0.5
  C  C522  1  0.872800  0.474900  0.583980  0.5
  N  N523  1  0.872800  0.474900  0.583980  0.5
  C  C524  1  0.525100  0.397900  0.917310  0.5
  N  N525  1  0.525100  0.397900  0.917310  0.5
  C  C526  1  0.602100  0.127200  0.250650  0.5
  N  N527  1  0.602100  0.127200  0.250650  0.5
  C  C528  1  0.525100  0.127200  0.249350  0.5
  N  N529  1  0.525100  0.127200  0.249350  0.5
  C  C530  1  0.602100  0.474900  0.916020  0.5
  N  N531  1  0.602100  0.474900  0.916020  0.5
  C  C532  1  0.872800  0.397900  0.582690  0.5
  N  N533  1  0.872800  0.397900  0.582690  0.5
  C  C534  1  0.474900  0.872800  0.749350  0.5
  N  N535  1  0.474900  0.872800  0.749350  0.5
  C  C536  1  0.397900  0.525100  0.416020  0.5
  N  N537  1  0.397900  0.525100  0.416020  0.5
  C  C538  1  0.127200  0.602100  0.082690  0.5
  N  N539  1  0.127200  0.602100  0.082690  0.5
  C  C540  1  0.760100  0.920200  0.082130  0.5
  N  N541  1  0.760100  0.920200  0.082130  0.5
  C  C542  1  0.079800  0.839900  0.415460  0.5
  N  N543  1  0.079800  0.839900  0.415460  0.5
  C  C544  1  0.160100  0.239900  0.748800  0.5
  N  N545  1  0.160100  0.239900  0.748800  0.5
  C  C546  1  0.239900  0.079800  0.582130  0.5
  N  N547  1  0.239900  0.079800  0.582130  0.5
  C  C548  1  0.920200  0.160100  0.915460  0.5
  N  N549  1  0.920200  0.160100  0.915460  0.5
  C  C550  1  0.839900  0.760100  0.248800  0.5
  N  N551  1  0.839900  0.760100  0.248800  0.5
  C  C552  1  0.920200  0.760100  0.251200  0.5
  N  N553  1  0.920200  0.760100  0.251200  0.5
  C  C554  1  0.839900  0.079800  0.917870  0.5
  N  N555  1  0.839900  0.079800  0.917870  0.5
  C  C556  1  0.239900  0.160100  0.584540  0.5
  N  N557  1  0.239900  0.160100  0.584540  0.5
  C  C558  1  0.079800  0.239900  0.751200  0.5
  N  N559  1  0.079800  0.239900  0.751200  0.5
  C  C560  1  0.160100  0.920200  0.417870  0.5
  N  N561  1  0.160100  0.920200  0.417870  0.5
  C  C562  1  0.760100  0.839900  0.084540  0.5
  N  N563  1  0.760100  0.839900  0.084540  0.5
  C  C564  1  0.422500  0.176800  0.076800  0.5
  N  N565  1  0.422500  0.176800  0.076800  0.5
  C  C566  1  0.823200  0.245700  0.410130  0.5
  N  N567  1  0.823200  0.245700  0.410130  0.5
  C  C568  1  0.754300  0.577500  0.743470  0.5
  N  N569  1  0.754300  0.577500  0.743470  0.5
  C  C570  1  0.577500  0.823200  0.576800  0.5
  N  N571  1  0.577500  0.823200  0.576800  0.5
  C  C572  1  0.176800  0.754300  0.910130  0.5
  N  N573  1  0.176800  0.754300  0.910130  0.5
  C  C574  1  0.245700  0.422500  0.243470  0.5
  N  N575  1  0.245700  0.422500  0.243470  0.5
  C  C576  1  0.176800  0.422500  0.256530  0.5
  N  N577  1  0.176800  0.422500  0.256530  0.5
  C  C578  1  0.245700  0.823200  0.923200  0.5
  N  N579  1  0.245700  0.823200  0.923200  0.5
  C  C580  1  0.577500  0.754300  0.589870  0.5
  N  N581  1  0.577500  0.754300  0.589870  0.5
  C  C582  1  0.823200  0.577500  0.756530  0.5
  N  N583  1  0.823200  0.577500  0.756530  0.5
  C  C584  1  0.754300  0.176800  0.423200  0.5
  N  N585  1  0.754300  0.176800  0.423200  0.5
  C  C586  1  0.422500  0.245700  0.089870  0.5
  N  N587  1  0.422500  0.245700  0.089870  0.5
  C  C588  1  0.371900  0.009900  0.013380  0.5
  N  N589  1  0.371900  0.009900  0.013380  0.5
  C  C590  1  0.990100  0.362000  0.346710  0.5
  N  N591  1  0.990100  0.362000  0.346710  0.5
  C  C592  1  0.638000  0.628100  0.680050  0.5
  N  N593  1  0.638000  0.628100  0.680050  0.5
  C  C594  1  0.628100  0.990100  0.513380  0.5
  N  N595  1  0.628100  0.990100  0.513380  0.5
  C  C596  1  0.009900  0.638000  0.846710  0.5
  N  N597  1  0.009900  0.638000  0.846710  0.5
  C  C598  1  0.362000  0.371900  0.180050  0.5
  N  N599  1  0.362000  0.371900  0.180050  0.5
  C  C600  1  0.009900  0.371900  0.319950  0.5
  N  N601  1  0.009900  0.371900  0.319950  0.5
  C  C602  1  0.362000  0.990100  0.986620  0.5
  N  N603  1  0.362000  0.990100  0.986620  0.5
  C  C604  1  0.628100  0.638000  0.653290  0.5
  N  N605  1  0.628100  0.638000  0.653290  0.5
  C  C606  1  0.990100  0.628100  0.819950  0.5
  N  N607  1  0.990100  0.628100  0.819950  0.5
  C  C608  1  0.638000  0.009900  0.486620  0.5
  N  N609  1  0.638000  0.009900  0.486620  0.5
  C  C610  1  0.371900  0.362000  0.153290  0.5
  N  N611  1  0.371900  0.362000  0.153290  0.5
  N  N612  1  0.999300  0.169200  0.191420  1.0
  N  N613  1  0.830800  0.830100  0.524750  1.0
  N  N614  1  0.169900  0.000700  0.858090  1.0
  N  N615  1  0.000700  0.830800  0.691420  1.0
  N  N616  1  0.169200  0.169900  0.024750  1.0
  N  N617  1  0.830100  0.999300  0.358090  1.0
  N  N618  1  0.169200  0.999300  0.141910  1.0
  N  N619  1  0.830100  0.830800  0.808580  1.0
  N  N620  1  0.000700  0.169900  0.475250  1.0
  N  N621  1  0.830800  0.000700  0.641910  1.0
  N  N622  1  0.169900  0.169200  0.308580  1.0
  N  N623  1  0.999300  0.830100  0.975250  1.0
  N  N624  1  0.818100  0.126500  0.169090  1.0
  N  N625  1  0.873500  0.691600  0.502420  1.0
  N  N626  1  0.308400  0.181900  0.835760  1.0
  N  N627  1  0.181900  0.873500  0.669090  1.0
  N  N628  1  0.126500  0.308400  0.002420  1.0
  N  N629  1  0.691600  0.818100  0.335760  1.0
  N  N630  1  0.126500  0.818100  0.164240  1.0
  N  N631  1  0.691600  0.873500  0.830910  1.0
  N  N632  1  0.181900  0.308400  0.497580  1.0
  N  N633  1  0.873500  0.181900  0.664240  1.0
  N  N634  1  0.308400  0.126500  0.330910  1.0
  N  N635  1  0.818100  0.691600  0.997580  1.0
  N  N636  1  0.844200  0.302900  0.148800  1.0
  N  N637  1  0.697100  0.541300  0.482130  1.0
  N  N638  1  0.458700  0.155800  0.815470  1.0
  N  N639  1  0.155800  0.697100  0.648800  1.0
  N  N640  1  0.302900  0.458700  0.982130  1.0
  N  N641  1  0.541300  0.844200  0.315470  1.0
  N  N642  1  0.302900  0.844200  0.184530  1.0
  N  N643  1  0.541300  0.697100  0.851200  1.0
  N  N644  1  0.155800  0.458700  0.517870  1.0
  N  N645  1  0.697100  0.155800  0.684530  1.0
  N  N646  1  0.458700  0.302900  0.351200  1.0
  N  N647  1  0.844200  0.541300  0.017870  1.0
  N  N648  1  0.396200  0.618300  0.133050  1.0
  N  N649  1  0.381700  0.777900  0.466380  1.0
  N  N650  1  0.222100  0.603800  0.799720  1.0
  N  N651  1  0.603800  0.381700  0.633050  1.0
  N  N652  1  0.618300  0.222100  0.966380  1.0
  N  N653  1  0.777900  0.396200  0.299720  1.0
  N  N654  1  0.618300  0.396200  0.200280  1.0
  N  N655  1  0.777900  0.381700  0.866950  1.0
  N  N656  1  0.603800  0.222100  0.533620  1.0
  N  N657  1  0.381700  0.603800  0.700280  1.0
  N  N658  1  0.222100  0.618300  0.366950  1.0
  N  N659  1  0.396200  0.777900  0.033620  1.0
  N  N660  1  0.080500  0.385000  0.163380  1.0
  N  N661  1  0.615000  0.695500  0.496710  1.0
  N  N662  1  0.304500  0.919500  0.830050  1.0
  N  N663  1  0.919500  0.615000  0.663380  1.0
  N  N664  1  0.385000  0.304500  0.996710  1.0
  N  N665  1  0.695500  0.080500  0.330050  1.0
  N  N666  1  0.385000  0.080500  0.169950  1.0
  N  N667  1  0.695500  0.615000  0.836620  1.0
  N  N668  1  0.919500  0.304500  0.503290  1.0
  N  N669  1  0.615000  0.919500  0.669950  1.0
  N  N670  1  0.304500  0.385000  0.336620  1.0
  N  N671  1  0.080500  0.695500  0.003290  1.0
  N  N672  1  0.298800  0.394400  0.055810  1.0
  N  N673  1  0.605600  0.904400  0.389140  1.0
  N  N674  1  0.095600  0.701200  0.722480  1.0
  N  N675  1  0.701200  0.605600  0.555810  1.0
  N  N676  1  0.394400  0.095600  0.889140  1.0
  N  N677  1  0.904400  0.298800  0.222480  1.0
  N  N678  1  0.394400  0.298800  0.277520  1.0
  N  N679  1  0.904400  0.605600  0.944190  1.0
  N  N680  1  0.701200  0.095600  0.610860  1.0
  N  N681  1  0.605600  0.701200  0.777520  1.0
  N  N682  1  0.095600  0.394400  0.444190  1.0
  N  N683  1  0.298800  0.904400  0.110860  1.0
  N  N684  1  0.897500  0.177300  0.084450  1.0
  N  N685  1  0.822700  0.720200  0.417780  1.0
  N  N686  1  0.279800  0.102500  0.751120  1.0
  N  N687  1  0.102500  0.822700  0.584450  1.0
  N  N688  1  0.177300  0.279800  0.917780  1.0
  N  N689  1  0.720200  0.897500  0.251120  1.0
  N  N690  1  0.177300  0.897500  0.248880  1.0
  N  N691  1  0.720200  0.822700  0.915550  1.0
  N  N692  1  0.102500  0.279800  0.582220  1.0
  N  N693  1  0.822700  0.102500  0.748880  1.0
  N  N694  1  0.279800  0.177300  0.415550  1.0
  N  N695  1  0.897500  0.720200  0.082220  1.0
  N  N696  1  0.560100  0.060700  0.064130  1.0
  N  N697  1  0.939300  0.499400  0.397460  1.0
  N  N698  1  0.500600  0.439900  0.730800  1.0
  N  N699  1  0.439900  0.939300  0.564130  1.0
  N  N700  1  0.060700  0.500600  0.897460  1.0
  N  N701  1  0.499400  0.560100  0.230800  1.0
  N  N702  1  0.060700  0.560100  0.269200  1.0
  N  N703  1  0.499400  0.939300  0.935870  1.0
  N  N704  1  0.439900  0.500600  0.602540  1.0
  N  N705  1  0.939300  0.439900  0.769200  1.0
  N  N706  1  0.500600  0.060700  0.435870  1.0
  N  N707  1  0.560100  0.499400  0.102540  1.0
