data_image0
_cell_length_a       11.522
_cell_length_b       12.72
_cell_length_c       13.884
_cell_angle_alpha    96.231
_cell_angle_beta     90
_cell_angle_gamma    90

_symmetry_space_group_name_H-M    "P 1"
_symmetry_int_tables_number       1

loop_
  _symmetry_equiv_pos_as_xyz
  'x, y, z'

loop_
  _atom_site_label
  _atom_site_occupancy
  _atom_site_fract_x
  _atom_site_fract_y
  _atom_site_fract_z
  _atom_site_thermal_displace_type
  _atom_site_B_iso_or_equiv
  _atom_site_type_symbol
  Th1      1.0000 0.26515  0.25000  0.00000  Biso   1.000  Th
  Th2      1.0000 0.76515  0.25000  0.50000  Biso   1.000  Th
  Th3      1.0000 0.73485  0.75000  0.00000  Biso   1.000  Th
  Th4      1.0000 0.23485  0.75000  0.50000  Biso   1.000  Th
  Cl1      1.0000 0.26630  0.32660  0.39767  Biso   1.000  Cl
  Cl2      1.0000 0.76630  0.32660  0.89767  Biso   1.000  Cl
  Cl3      1.0000 0.73370  0.82660  0.39767  Biso   1.000  Cl
  Cl4      1.0000 0.23370  0.82660  0.89767  Biso   1.000  Cl
  Cl5      1.0000 0.73370  0.67340  0.60233  Biso   1.000  Cl
  Cl6      1.0000 0.23370  0.67340  0.10233  Biso   1.000  Cl
  Cl7      1.0000 0.26630  0.17340  0.60233  Biso   1.000  Cl
  Cl8      1.0000 0.76630  0.17340  0.10233  Biso   1.000  Cl
  O1       1.0000 0.28790  0.29860  0.18070  Biso   1.000  O
  O2       1.0000 0.78790  0.29860  0.68070  Biso   1.000  O
  O3       1.0000 0.71210  0.79860  0.18070  Biso   1.000  O
  O4       1.0000 0.21210  0.79860  0.68070  Biso   1.000  O
  O5       1.0000 0.71210  0.70140  0.81930  Biso   1.000  O
  O6       1.0000 0.21210  0.70140  0.31930  Biso   1.000  O
  O7       1.0000 0.28790  0.20140  0.81930  Biso   1.000  O
  O8       1.0000 0.78790  0.20140  0.31930  Biso   1.000  O
  O9       1.0000 0.20240  0.55870  0.43700  Biso   1.000  O
  O10      1.0000 0.70240  0.55870  0.93700  Biso   1.000  O
  O11      1.0000 0.79760  0.05870  0.43700  Biso   1.000  O
  O12      1.0000 0.29760  0.05870  0.93700  Biso   1.000  O
  O13      1.0000 0.79760  0.44130  0.56300  Biso   1.000  O
  O14      1.0000 0.29760  0.44130  0.06300  Biso   1.000  O
  O15      1.0000 0.20240  0.94130  0.56300  Biso   1.000  O
  O16      1.0000 0.70240  0.94130  0.06300  Biso   1.000  O
  C1       1.0000 0.27300  0.39060  0.21880  Biso   1.000  C
  C2       1.0000 0.77300  0.39060  0.71880  Biso   1.000  C
  C3       1.0000 0.72700  0.89060  0.21880  Biso   1.000  C
  C4       1.0000 0.22700  0.89060  0.71880  Biso   1.000  C
  C5       1.0000 0.72700  0.60940  0.78120  Biso   1.000  C
  C6       1.0000 0.22700  0.60940  0.28120  Biso   1.000  C
  C7       1.0000 0.27300  0.10940  0.78120  Biso   1.000  C
  C8       1.0000 0.77300  0.10940  0.28120  Biso   1.000  C
  C9       1.0000 0.22960  0.52560  0.35050  Biso   1.000  C
  C10      1.0000 0.72960  0.52560  0.85050  Biso   1.000  C
  C11      1.0000 0.77040  0.02560  0.35050  Biso   1.000  C
  C12      1.0000 0.27040  0.02560  0.85050  Biso   1.000  C
  C13      1.0000 0.77040  0.47440  0.64950  Biso   1.000  C
  C14      1.0000 0.27040  0.47440  0.14950  Biso   1.000  C
  C15      1.0000 0.22960  0.97440  0.64950  Biso   1.000  C
  C16      1.0000 0.72960  0.97440  0.14950  Biso   1.000  C
  C17      1.0000 0.25520  0.42120  0.31820  Biso   1.000  C
  C18      1.0000 0.75520  0.42120  0.81820  Biso   1.000  C
  C19      1.0000 0.74480  0.92120  0.31820  Biso   1.000  C
  C20      1.0000 0.24480  0.92120  0.81820  Biso   1.000  C
  C21      1.0000 0.74480  0.57880  0.68180  Biso   1.000  C
  C22      1.0000 0.24480  0.57880  0.18180  Biso   1.000  C
  C23      1.0000 0.25520  0.07880  0.68180  Biso   1.000  C
  C24      1.0000 0.75520  0.07880  0.18180  Biso   1.000  C
  Cl9      1.0000 0.89810  0.05860  0.79980  Biso   1.000  Cl
  Cl10     1.0000 0.39810  0.05860  0.29980  Biso   1.000  Cl
  Cl11     1.0000 0.10190  0.55860  0.79980  Biso   1.000  Cl
  Cl12     1.0000 0.60190  0.55860  0.29980  Biso   1.000  Cl
  Cl13     1.0000 0.10190  0.94140  0.20020  Biso   1.000  Cl
  Cl14     1.0000 0.60190  0.94140  0.70020  Biso   1.000  Cl
  Cl15     1.0000 0.89810  0.44140  0.20020  Biso   1.000  Cl
  Cl16     1.0000 0.39810  0.44140  0.70020  Biso   1.000  Cl
  O17      1.0000 0.08480  0.16840  0.92310  Biso   1.000  O
  O18      1.0000 0.58480  0.16840  0.42310  Biso   1.000  O
  O19      1.0000 0.91520  0.66840  0.92310  Biso   1.000  O
  O20      1.0000 0.41520  0.66840  0.42310  Biso   1.000  O
  O21      1.0000 0.91520  0.83160  0.07690  Biso   1.000  O
  O22      1.0000 0.41520  0.83160  0.57690  Biso   1.000  O
  O23      1.0000 0.08480  0.33160  0.07690  Biso   1.000  O
  O24      1.0000 0.58480  0.33160  0.57690  Biso   1.000  O
  O25      1.0000 0.83600  0.87580  0.90870  Biso   1.000  O
  O26      1.0000 0.33600  0.87580  0.40870  Biso   1.000  O
  O27      1.0000 0.16400  0.37580  0.90870  Biso   1.000  O
  O28      1.0000 0.66400  0.37580  0.40870  Biso   1.000  O
  O29      1.0000 0.16400  0.12420  0.09130  Biso   1.000  O
  O30      1.0000 0.66400  0.12420  0.59130  Biso   1.000  O
  O31      1.0000 0.83600  0.62420  0.09130  Biso   1.000  O
  O32      1.0000 0.33600  0.62420  0.59130  Biso   1.000  O
  C25      1.0000 0.04020  0.08990  0.95620  Biso   1.000  C
  C26      1.0000 0.54020  0.08990  0.45620  Biso   1.000  C
  C27      1.0000 0.95980  0.58990  0.95620  Biso   1.000  C
  C28      1.0000 0.45980  0.58990  0.45620  Biso   1.000  C
  C29      1.0000 0.95980  0.91010  0.04380  Biso   1.000  C
  C30      1.0000 0.45980  0.91010  0.54380  Biso   1.000  C
  C31      1.0000 0.04020  0.41010  0.04380  Biso   1.000  C
  C32      1.0000 0.54020  0.41010  0.54380  Biso   1.000  C
  C33      1.0000 0.91260  0.93880  0.94750  Biso   1.000  C
  C34      1.0000 0.41260  0.93880  0.44750  Biso   1.000  C
  C35      1.0000 0.08740  0.43880  0.94750  Biso   1.000  C
  C36      1.0000 0.58740  0.43880  0.44750  Biso   1.000  C
  C37      1.0000 0.08740  0.06120  0.05250  Biso   1.000  C
  C38      1.0000 0.58740  0.06120  0.55250  Biso   1.000  C
  C39      1.0000 0.91260  0.56120  0.05250  Biso   1.000  C
  C40      1.0000 0.41260  0.56120  0.55250  Biso   1.000  C
  C41      1.0000 0.95320  0.02290  0.90770  Biso   1.000  C
  C42      1.0000 0.45320  0.02290  0.40770  Biso   1.000  C
  C43      1.0000 0.04680  0.52290  0.90770  Biso   1.000  C
  C44      1.0000 0.54680  0.52290  0.40770  Biso   1.000  C
  C45      1.0000 0.04680  0.97710  0.09230  Biso   1.000  C
  C46      1.0000 0.54680  0.97710  0.59230  Biso   1.000  C
  C47      1.0000 0.95320  0.47710  0.09230  Biso   1.000  C
  C48      1.0000 0.45320  0.47710  0.59230  Biso   1.000  C
  O33      1.0000 0.43830  0.17380  0.07160  Biso   1.000  O
  O34      1.0000 0.93830  0.17380  0.57160  Biso   1.000  O
  O35      1.0000 0.56170  0.67380  0.07160  Biso   1.000  O
  O36      1.0000 0.06170  0.67380  0.57160  Biso   1.000  O
  O37      1.0000 0.56170  0.82620  0.92840  Biso   1.000  O
  O38      1.0000 0.06170  0.82620  0.42840  Biso   1.000  O
  O39      1.0000 0.43830  0.32620  0.92840  Biso   1.000  O
  O40      1.0000 0.93830  0.32620  0.42840  Biso   1.000  O
  O41      1.0000 0.03760  0.22080  0.26790  Biso   1.000  O
  O42      1.0000 0.53760  0.22080  0.76790  Biso   1.000  O
  O43      1.0000 0.96240  0.72080  0.26790  Biso   1.000  O
  O44      1.0000 0.46240  0.72080  0.76790  Biso   1.000  O
  O45      1.0000 0.96240  0.77920  0.73210  Biso   1.000  O
  O46      1.0000 0.46240  0.77920  0.23210  Biso   1.000  O
  O47      1.0000 0.03760  0.27920  0.73210  Biso   1.000  O
  O48      1.0000 0.53760  0.27920  0.23210  Biso   1.000  O
  O49      1.0000 0.08100  0.07550  0.43010  Biso   1.000  O
  O50      1.0000 0.58100  0.07550  0.93010  Biso   1.000  O
  O51      1.0000 0.91900  0.57550  0.43010  Biso   1.000  O
  O52      1.0000 0.41900  0.57550  0.93010  Biso   1.000  O
  O53      1.0000 0.91900  0.92450  0.56990  Biso   1.000  O
  O54      1.0000 0.41900  0.92450  0.06990  Biso   1.000  O
  O55      1.0000 0.08100  0.42450  0.56990  Biso   1.000  O
  O56      1.0000 0.58100  0.42450  0.06990  Biso   1.000  O
