data_image0
_cell_length_a       7.6904
_cell_length_b       10.266
_cell_length_c       11.138
_cell_angle_alpha    108.72
_cell_angle_beta     90
_cell_angle_gamma    90

_symmetry_space_group_name_H-M    "P 1"
_symmetry_int_tables_number       1

loop_
  _symmetry_equiv_pos_as_xyz
  'x, y, z'

loop_
  _atom_site_label
  _atom_site_occupancy
  _atom_site_fract_x
  _atom_site_fract_y
  _atom_site_fract_z
  _atom_site_thermal_displace_type
  _atom_site_B_iso_or_equiv
  _atom_site_type_symbol
  In1      1.0000 0.43308  0.48598  0.25325  Biso   1.000  In
  In2      1.0000 0.93308  0.51402  0.24675  Biso   1.000  In
  In3      1.0000 0.56692  0.51402  0.74675  Biso   1.000  In
  In4      1.0000 0.06692  0.48598  0.75325  Biso   1.000  In
  C1       1.0000 0.36090  0.14680  0.37000  Biso   1.000  C
  C2       1.0000 0.86090  0.85320  0.13000  Biso   1.000  C
  C3       1.0000 0.63910  0.85320  0.63000  Biso   1.000  C
  C4       1.0000 0.13910  0.14680  0.87000  Biso   1.000  C
  C5       1.0000 0.27300  0.12580  0.46960  Biso   1.000  C
  C6       1.0000 0.77300  0.87420  0.03040  Biso   1.000  C
  C7       1.0000 0.72700  0.87420  0.53040  Biso   1.000  C
  C8       1.0000 0.22700  0.12580  0.96960  Biso   1.000  C
  H1       1.0000 0.21970  0.19530  0.53410  Biso   1.000  H
  H2       1.0000 0.71970  0.80470  0.96590  Biso   1.000  H
  H3       1.0000 0.78030  0.80470  0.46590  Biso   1.000  H
  H4       1.0000 0.28030  0.19530  0.03410  Biso   1.000  H
  C9       1.0000 0.27340  0.98610  0.46180  Biso   1.000  C
  C10      1.0000 0.77340  0.01390  0.03820  Biso   1.000  C
  C11      1.0000 0.72660  0.01390  0.53820  Biso   1.000  C
  C12      1.0000 0.22660  0.98610  0.96180  Biso   1.000  C
  H5       1.0000 0.21930  0.95280  0.52080  Biso   1.000  H
  H6       1.0000 0.71930  0.04720  0.97920  Biso   1.000  H
  H7       1.0000 0.78070  0.04720  0.47920  Biso   1.000  H
  H8       1.0000 0.28070  0.95280  0.02080  Biso   1.000  H
  C13      1.0000 0.36250  0.90420  0.35760  Biso   1.000  C
  C14      1.0000 0.86250  0.09580  0.14240  Biso   1.000  C
  C15      1.0000 0.63750  0.09580  0.64240  Biso   1.000  C
  C16      1.0000 0.13750  0.90420  0.85760  Biso   1.000  C
  C17      1.0000 0.38510  0.27530  0.33860  Biso   1.000  C
  C18      1.0000 0.88510  0.72470  0.16140  Biso   1.000  C
  C19      1.0000 0.61490  0.72470  0.66140  Biso   1.000  C
  C20      1.0000 0.11490  0.27530  0.83860  Biso   1.000  C
  C21      1.0000 0.39040  0.75530  0.31910  Biso   1.000  C
  C22      1.0000 0.89040  0.24470  0.18090  Biso   1.000  C
  C23      1.0000 0.60960  0.24470  0.68090  Biso   1.000  C
  C24      1.0000 0.10960  0.75530  0.81910  Biso   1.000  C
  O1       1.0000 0.34530  0.68785  0.39265  Biso   1.000  O
  O2       1.0000 0.84530  0.31215  0.10735  Biso   1.000  O
  O3       1.0000 0.65470  0.31215  0.60735  Biso   1.000  O
  O4       1.0000 0.15470  0.68785  0.89265  Biso   1.000  O
  O5       1.0000 0.46170  0.69327  0.21373  Biso   1.000  O
  O6       1.0000 0.96170  0.30673  0.28627  Biso   1.000  O
  O7       1.0000 0.53830  0.30673  0.78627  Biso   1.000  O
  O8       1.0000 0.03830  0.69327  0.71373  Biso   1.000  O
  O9       1.0000 0.33531  0.39115  0.41137  Biso   1.000  O
  O10      1.0000 0.83531  0.60885  0.08863  Biso   1.000  O
  O11      1.0000 0.66469  0.60885  0.58863  Biso   1.000  O
  O12      1.0000 0.16469  0.39115  0.91137  Biso   1.000  O
  O13      1.0000 0.45680  0.26553  0.23341  Biso   1.000  O
  O14      1.0000 0.95680  0.73447  0.26659  Biso   1.000  O
  O15      1.0000 0.54320  0.73447  0.76659  Biso   1.000  O
  O16      1.0000 0.04320  0.26553  0.73341  Biso   1.000  O
  O17      1.0000 0.53500  0.39600  0.05629  Biso   1.000  O
  O18      1.0000 0.03500  0.60400  0.44371  Biso   1.000  O
  O19      1.0000 0.46500  0.60400  0.94371  Biso   1.000  O
  O20      1.0000 0.96500  0.39600  0.55629  Biso   1.000  O
  H9       1.0000 0.48950  0.37900  0.98390  Biso   1.000  H
  H10      1.0000 0.98950  0.62100  0.51610  Biso   1.000  H
  H11      1.0000 0.51050  0.62100  0.01610  Biso   1.000  H
  H12      1.0000 0.01050  0.37900  0.48390  Biso   1.000  H
  H13      1.0000 0.62980  0.35670  0.06240  Biso   1.000  H
  H14      1.0000 0.12980  0.64330  0.43760  Biso   1.000  H
  H15      1.0000 0.37020  0.64330  0.93760  Biso   1.000  H
  H16      1.0000 0.87020  0.35670  0.56240  Biso   1.000  H
  O21      1.0000 0.68314  0.52690  0.32723  Biso   1.000  O
  O22      1.0000 0.18314  0.47310  0.17277  Biso   1.000  O
  O23      1.0000 0.31686  0.47310  0.67277  Biso   1.000  O
  O24      1.0000 0.81686  0.52690  0.82723  Biso   1.000  O
  H17      1.0000 0.71760  0.60950  0.35910  Biso   1.000  H
  H18      1.0000 0.21760  0.39050  0.14090  Biso   1.000  H
  H19      1.0000 0.28240  0.39050  0.64090  Biso   1.000  H
  H20      1.0000 0.78240  0.60950  0.85910  Biso   1.000  H
  H21      1.0000 0.75100  0.46090  0.32520  Biso   1.000  H
  H22      1.0000 0.25100  0.53910  0.17480  Biso   1.000  H
  H23      1.0000 0.24900  0.53910  0.67480  Biso   1.000  H
  H24      1.0000 0.74900  0.46090  0.82520  Biso   1.000  H
  S1       1.0000 0.44466  0.99737  0.26763  Biso   1.000  S
  S2       1.0000 0.94466  0.00263  0.23237  Biso   1.000  S
  S3       1.0000 0.55534  0.00263  0.73237  Biso   1.000  S
  S4       1.0000 0.05534  0.99737  0.76763  Biso   1.000  S
