data_image0
_cell_length_a       10.6396
_cell_length_b       15.3656
_cell_length_c       18.691
_cell_angle_alpha    90
_cell_angle_beta     98.1187
_cell_angle_gamma    90

_symmetry_space_group_name_H-M    "P 1"
_symmetry_int_tables_number       1

loop_
  _symmetry_equiv_pos_as_xyz
  'x, y, z'

loop_
  _atom_site_label
  _atom_site_occupancy
  _atom_site_fract_x
  _atom_site_fract_y
  _atom_site_fract_z
  _atom_site_thermal_displace_type
  _atom_site_B_iso_or_equiv
  _atom_site_type_symbol
  Cu1      1.0000 0.03216  0.29475  0.67767  Biso   1.000  Cu
  Cu2      1.0000 0.46784  0.79475  0.82233  Biso   1.000  Cu
  Cu3      1.0000 0.96784  0.70525  0.32233  Biso   1.000  Cu
  Cu4      1.0000 0.53216  0.20525  0.17767  Biso   1.000  Cu
  S1       1.0000 0.28279  0.52426  0.75112  Biso   1.000  S
  S2       1.0000 0.21721  0.02426  0.74888  Biso   1.000  S
  S3       1.0000 0.71721  0.47574  0.24888  Biso   1.000  S
  S4       1.0000 0.78279  0.97574  0.25112  Biso   1.000  S
  N1       1.0000 0.16450  0.38047  0.73788  Biso   1.000  N
  N2       1.0000 0.33550  0.88047  0.76212  Biso   1.000  N
  N3       1.0000 0.83550  0.61953  0.26212  Biso   1.000  N
  N4       1.0000 0.66450  0.11953  0.23788  Biso   1.000  N
  N5       1.0000 0.98882  0.40927  0.62392  Biso   1.000  N
  N6       1.0000 0.51118  0.90927  0.87608  Biso   1.000  N
  N7       1.0000 0.01118  0.59073  0.37608  Biso   1.000  N
  N8       1.0000 0.48882  0.09073  0.12392  Biso   1.000  N
  C1       1.0000 0.25765  0.37273  0.79693  Biso   1.000  C
  C2       1.0000 0.24235  0.87273  0.70307  Biso   1.000  C
  C3       1.0000 0.74235  0.62727  0.20307  Biso   1.000  C
  C4       1.0000 0.75765  0.12727  0.29693  Biso   1.000  C
  C5       1.0000 0.27050  0.30002  0.84246  Biso   1.000  C
  C6       1.0000 0.22950  0.80002  0.65754  Biso   1.000  C
  C7       1.0000 0.72950  0.69998  0.15754  Biso   1.000  C
  C8       1.0000 0.77050  0.19998  0.34246  Biso   1.000  C
  H1       1.0000 0.21630  0.25110  0.83270  Biso   1.000  H
  H2       1.0000 0.28370  0.75110  0.66730  Biso   1.000  H
  H3       1.0000 0.78370  0.74890  0.16730  Biso   1.000  H
  H4       1.0000 0.71630  0.24890  0.33270  Biso   1.000  H
  C9       1.0000 0.36320  0.30093  0.90166  Biso   1.000  C
  C10      1.0000 0.13680  0.80093  0.59834  Biso   1.000  C
  C11      1.0000 0.63680  0.69907  0.09834  Biso   1.000  C
  C12      1.0000 0.86320  0.19907  0.40166  Biso   1.000  C
  H5       1.0000 0.37270  0.25210  0.93310  Biso   1.000  H
  H6       1.0000 0.12730  0.75210  0.56690  Biso   1.000  H
  H7       1.0000 0.62730  0.74790  0.06690  Biso   1.000  H
  H8       1.0000 0.87270  0.24790  0.43310  Biso   1.000  H
  C13      1.0000 0.44385  0.37241  0.91640  Biso   1.000  C
  C14      1.0000 0.05615  0.87241  0.58360  Biso   1.000  C
  C15      1.0000 0.55615  0.62759  0.08360  Biso   1.000  C
  C16      1.0000 0.94385  0.12759  0.41640  Biso   1.000  C
  H9       1.0000 0.50740  0.37120  0.95750  Biso   1.000  H
  H10      1.0000 0.99260  0.87120  0.54250  Biso   1.000  H
  H11      1.0000 0.49260  0.62880  0.04250  Biso   1.000  H
  H12      1.0000 0.00740  0.12880  0.45750  Biso   1.000  H
  C17      1.0000 0.43275  0.44457  0.87234  Biso   1.000  C
  C18      1.0000 0.06725  0.94457  0.62766  Biso   1.000  C
  C19      1.0000 0.56725  0.55543  0.12766  Biso   1.000  C
  C20      1.0000 0.93275  0.05543  0.37234  Biso   1.000  C
  H13      1.0000 0.48770  0.49300  0.88270  Biso   1.000  H
  H14      1.0000 0.01230  0.99300  0.61730  Biso   1.000  H
  H15      1.0000 0.51230  0.50700  0.11730  Biso   1.000  H
  H16      1.0000 0.98770  0.00700  0.38270  Biso   1.000  H
  C21      1.0000 0.33862  0.44489  0.81199  Biso   1.000  C
  C22      1.0000 0.16138  0.94489  0.68801  Biso   1.000  C
  C23      1.0000 0.66138  0.55511  0.18801  Biso   1.000  C
  C24      1.0000 0.83862  0.05511  0.31199  Biso   1.000  C
  C25      1.0000 0.16386  0.45646  0.70693  Biso   1.000  C
  C26      1.0000 0.33614  0.95646  0.79307  Biso   1.000  C
  C27      1.0000 0.83614  0.54354  0.29307  Biso   1.000  C
  C28      1.0000 0.66386  0.04354  0.20693  Biso   1.000  C
  C29      1.0000 0.06194  0.47589  0.64839  Biso   1.000  C
  C30      1.0000 0.43806  0.97589  0.85161  Biso   1.000  C
  C31      1.0000 0.93806  0.52411  0.35161  Biso   1.000  C
  C32      1.0000 0.56194  0.02411  0.14839  Biso   1.000  C
  C33      1.0000 0.04920  0.56565  0.62880  Biso   1.000  C
  C34      1.0000 0.45080  0.06565  0.87120  Biso   1.000  C
  C35      1.0000 0.95080  0.43435  0.37120  Biso   1.000  C
  C36      1.0000 0.54920  0.93435  0.12880  Biso   1.000  C
  H17      1.0000 0.10650  0.60870  0.65030  Biso   1.000  H
  H18      1.0000 0.39350  0.10870  0.84970  Biso   1.000  H
  H19      1.0000 0.89350  0.39130  0.34970  Biso   1.000  H
  H20      1.0000 0.60650  0.89130  0.15030  Biso   1.000  H
  C37      1.0000 0.94940  0.58550  0.57720  Biso   1.000  C
  C38      1.0000 0.55060  0.08550  0.92280  Biso   1.000  C
  C39      1.0000 0.05060  0.41450  0.42280  Biso   1.000  C
  C40      1.0000 0.44940  0.91450  0.07720  Biso   1.000  C
  H21      1.0000 0.93390  0.64370  0.56130  Biso   1.000  H
  H22      1.0000 0.56610  0.14370  0.93870  Biso   1.000  H
  H23      1.0000 0.06610  0.35630  0.43870  Biso   1.000  H
  H24      1.0000 0.43390  0.85630  0.06130  Biso   1.000  H
  C41      1.0000 0.86816  0.51527  0.54763  Biso   1.000  C
  C42      1.0000 0.63184  0.01527  0.95237  Biso   1.000  C
  C43      1.0000 0.13184  0.48473  0.45237  Biso   1.000  C
  C44      1.0000 0.36816  0.98473  0.04763  Biso   1.000  C
  C45      1.0000 0.76471  0.53494  0.49442  Biso   1.000  C
  C46      1.0000 0.73529  0.03494  0.00558  Biso   1.000  C
  C47      1.0000 0.23529  0.46506  0.50558  Biso   1.000  C
  C48      1.0000 0.26471  0.96506  0.99442  Biso   1.000  C
  H25      1.0000 0.74940  0.59320  0.47860  Biso   1.000  H
  H26      1.0000 0.75060  0.09320  0.02140  Biso   1.000  H
  H27      1.0000 0.25060  0.40680  0.52140  Biso   1.000  H
  H28      1.0000 0.24940  0.90680  0.97860  Biso   1.000  H
  C49      1.0000 0.68621  0.46911  0.46557  Biso   1.000  C
  C50      1.0000 0.81379  0.96911  0.03443  Biso   1.000  C
  C51      1.0000 0.31379  0.53089  0.53443  Biso   1.000  C
  C52      1.0000 0.18621  0.03089  0.96557  Biso   1.000  C
  H29      1.0000 0.61650  0.48210  0.42950  Biso   1.000  H
  H30      1.0000 0.88350  0.98210  0.07050  Biso   1.000  H
  H31      1.0000 0.38350  0.51790  0.57050  Biso   1.000  H
  H32      1.0000 0.11650  0.01790  0.92950  Biso   1.000  H
  C53      1.0000 0.70771  0.38261  0.48875  Biso   1.000  C
  C54      1.0000 0.79229  0.88261  0.01125  Biso   1.000  C
  C55      1.0000 0.29229  0.61739  0.51125  Biso   1.000  C
  C56      1.0000 0.20771  0.11739  0.98875  Biso   1.000  C
  H33      1.0000 0.65260  0.33780  0.46800  Biso   1.000  H
  H34      1.0000 0.84740  0.83780  0.03200  Biso   1.000  H
  H35      1.0000 0.34740  0.66220  0.53200  Biso   1.000  H
  H36      1.0000 0.15260  0.16220  0.96800  Biso   1.000  H
  C57      1.0000 0.80701  0.36223  0.54075  Biso   1.000  C
  C58      1.0000 0.69299  0.86223  0.95925  Biso   1.000  C
  C59      1.0000 0.19299  0.63777  0.45925  Biso   1.000  C
  C60      1.0000 0.30701  0.13777  0.04075  Biso   1.000  C
  H37      1.0000 0.82060  0.30370  0.55630  Biso   1.000  H
  H38      1.0000 0.67940  0.80370  0.94370  Biso   1.000  H
  H39      1.0000 0.17940  0.69630  0.44370  Biso   1.000  H
  H40      1.0000 0.32060  0.19630  0.05630  Biso   1.000  H
  C61      1.0000 0.88886  0.42832  0.57108  Biso   1.000  C
  C62      1.0000 0.61114  0.92832  0.92892  Biso   1.000  C
  C63      1.0000 0.11114  0.57168  0.42892  Biso   1.000  C
  C64      1.0000 0.38886  0.07168  0.07108  Biso   1.000  C
  Cu5      1.0000 0.32541  0.23391  0.41824  Biso   1.000  Cu
  Cu6      1.0000 0.17459  0.73391  0.08176  Biso   1.000  Cu
  Cu7      1.0000 0.67459  0.76609  0.58176  Biso   1.000  Cu
  Cu8      1.0000 0.82541  0.26609  0.91824  Biso   1.000  Cu
  S5       1.0000 0.28572  0.03050  0.24245  Biso   1.000  S
  S6       1.0000 0.21428  0.53050  0.25755  Biso   1.000  S
  S7       1.0000 0.71428  0.96950  0.75755  Biso   1.000  S
  S8       1.0000 0.78572  0.46950  0.74245  Biso   1.000  S
  N9       1.0000 0.25929  0.15625  0.33004  Biso   1.000  N
  N10      1.0000 0.24071  0.65625  0.16996  Biso   1.000  N
  N11      1.0000 0.74071  0.84375  0.66996  Biso   1.000  N
  N12      1.0000 0.75929  0.34375  0.83004  Biso   1.000  N
  N13      1.0000 0.46647  0.13412  0.42683  Biso   1.000  N
  N14      1.0000 0.03353  0.63412  0.07317  Biso   1.000  N
  N15      1.0000 0.53353  0.86588  0.57317  Biso   1.000  N
  N16      1.0000 0.96647  0.36588  0.92683  Biso   1.000  N
  C65      1.0000 0.16079  0.16365  0.27355  Biso   1.000  C
  C66      1.0000 0.33921  0.66365  0.22645  Biso   1.000  C
  C67      1.0000 0.83921  0.83635  0.72645  Biso   1.000  C
  C68      1.0000 0.66079  0.33635  0.77355  Biso   1.000  C
  C69      1.0000 0.06740  0.22860  0.26761  Biso   1.000  C
  C70      1.0000 0.43260  0.72860  0.23239  Biso   1.000  C
  C71      1.0000 0.93260  0.77140  0.73239  Biso   1.000  C
  C72      1.0000 0.56740  0.27140  0.76761  Biso   1.000  C
  H41      1.0000 0.06850  0.27240  0.30350  Biso   1.000  H
  H42      1.0000 0.43150  0.77240  0.19650  Biso   1.000  H
  H43      1.0000 0.93150  0.72760  0.69650  Biso   1.000  H
  H44      1.0000 0.56850  0.22760  0.80350  Biso   1.000  H
  C73      1.0000 0.97360  0.22738  0.20817  Biso   1.000  C
  C74      1.0000 0.52640  0.72738  0.29183  Biso   1.000  C
  C75      1.0000 0.02640  0.77262  0.79183  Biso   1.000  C
  C76      1.0000 0.47360  0.27262  0.70817  Biso   1.000  C
  H45      1.0000 0.90890  0.27040  0.20360  Biso   1.000  H
  H46      1.0000 0.59110  0.77040  0.29640  Biso   1.000  H
  H47      1.0000 0.09110  0.72960  0.79640  Biso   1.000  H
  H48      1.0000 0.40890  0.22960  0.70360  Biso   1.000  H
  C77      1.0000 0.97320  0.16372  0.15499  Biso   1.000  C
  C78      1.0000 0.52680  0.66372  0.34501  Biso   1.000  C
  C79      1.0000 0.02680  0.83628  0.84501  Biso   1.000  C
  C80      1.0000 0.47320  0.33628  0.65499  Biso   1.000  C
  H49      1.0000 0.90780  0.16430  0.11470  Biso   1.000  H
  H50      1.0000 0.59220  0.66430  0.38530  Biso   1.000  H
  H51      1.0000 0.09220  0.83570  0.88530  Biso   1.000  H
  H52      1.0000 0.40780  0.33570  0.61470  Biso   1.000  H
  C81      1.0000 0.06505  0.09997  0.15918  Biso   1.000  C
  C82      1.0000 0.43495  0.59997  0.34082  Biso   1.000  C
  C83      1.0000 0.93495  0.90003  0.84082  Biso   1.000  C
  C84      1.0000 0.56505  0.40003  0.65918  Biso   1.000  C
  H53      1.0000 0.06410  0.05730  0.12230  Biso   1.000  H
  H54      1.0000 0.43590  0.55730  0.37770  Biso   1.000  H
  H55      1.0000 0.93590  0.94270  0.87770  Biso   1.000  H
  H56      1.0000 0.56410  0.44270  0.62230  Biso   1.000  H
  C85      1.0000 0.15950  0.09985  0.21914  Biso   1.000  C
  C86      1.0000 0.34050  0.59985  0.28086  Biso   1.000  C
  C87      1.0000 0.84050  0.90015  0.78086  Biso   1.000  C
  C88      1.0000 0.65950  0.40015  0.71914  Biso   1.000  C
  C89      1.0000 0.33418  0.09166  0.32057  Biso   1.000  C
  C90      1.0000 0.16582  0.59166  0.17943  Biso   1.000  C
  C91      1.0000 0.66582  0.90834  0.67943  Biso   1.000  C
  C92      1.0000 0.83418  0.40834  0.82057  Biso   1.000  C
  C93      1.0000 0.44656  0.07575  0.37387  Biso   1.000  C
  C94      1.0000 0.05344  0.57575  0.12613  Biso   1.000  C
  C95      1.0000 0.55344  0.92425  0.62613  Biso   1.000  C
  C96      1.0000 0.94656  0.42425  0.87387  Biso   1.000  C
  C97      1.0000 0.52140  0.00145  0.36608  Biso   1.000  C
  C98      1.0000 0.97860  0.50145  0.13392  Biso   1.000  C
  C99      1.0000 0.47860  0.99855  0.63392  Biso   1.000  C
  C100     1.0000 0.02140  0.49855  0.86608  Biso   1.000  C
  H57      1.0000 0.50170  0.96280  0.32640  Biso   1.000  H
  H58      1.0000 0.99830  0.46280  0.17360  Biso   1.000  H
  H59      1.0000 0.49830  0.03720  0.67360  Biso   1.000  H
  H60      1.0000 0.00170  0.53720  0.82640  Biso   1.000  H
  C101     1.0000 0.62350  0.98750  0.41810  Biso   1.000  C
  C102     1.0000 0.87650  0.48750  0.08190  Biso   1.000  C
  C103     1.0000 0.37650  0.01250  0.58190  Biso   1.000  C
  C104     1.0000 0.12350  0.51250  0.91810  Biso   1.000  C
  H61      1.0000 0.67760  0.93880  0.41500  Biso   1.000  H
  H62      1.0000 0.82240  0.43880  0.08500  Biso   1.000  H
  H63      1.0000 0.32240  0.06120  0.58500  Biso   1.000  H
  H64      1.0000 0.17760  0.56120  0.91500  Biso   1.000  H
  C105     1.0000 0.64792  0.04765  0.47762  Biso   1.000  C
  C106     1.0000 0.85208  0.54765  0.02238  Biso   1.000  C
  C107     1.0000 0.35208  0.95235  0.52238  Biso   1.000  C
  C108     1.0000 0.14792  0.45235  0.97762  Biso   1.000  C
  C109     1.0000 0.74927  0.03453  0.53397  Biso   1.000  C
  C110     1.0000 0.75073  0.53453  0.96603  Biso   1.000  C
  C111     1.0000 0.25073  0.96547  0.46603  Biso   1.000  C
  C112     1.0000 0.24927  0.46547  0.03397  Biso   1.000  C
  H65      1.0000 0.80420  0.98600  0.53280  Biso   1.000  H
  H66      1.0000 0.69580  0.48600  0.96720  Biso   1.000  H
  H67      1.0000 0.19580  0.01400  0.46720  Biso   1.000  H
  H68      1.0000 0.30420  0.51400  0.03280  Biso   1.000  H
  C113     1.0000 0.76813  0.09249  0.59067  Biso   1.000  C
  C114     1.0000 0.73187  0.59249  0.90933  Biso   1.000  C
  C115     1.0000 0.23187  0.90751  0.40933  Biso   1.000  C
  C116     1.0000 0.26813  0.40751  0.09067  Biso   1.000  C
  H69      1.0000 0.83660  0.08390  0.62850  Biso   1.000  H
  H70      1.0000 0.66340  0.58390  0.87150  Biso   1.000  H
  H71      1.0000 0.16340  0.91610  0.37150  Biso   1.000  H
  H72      1.0000 0.33660  0.41610  0.12850  Biso   1.000  H
  C117     1.0000 0.68660  0.16449  0.59298  Biso   1.000  C
  C118     1.0000 0.81340  0.66449  0.90702  Biso   1.000  C
  C119     1.0000 0.31340  0.83551  0.40702  Biso   1.000  C
  C120     1.0000 0.18660  0.33551  0.09298  Biso   1.000  C
  H73      1.0000 0.70010  0.20370  0.63270  Biso   1.000  H
  H74      1.0000 0.79990  0.70370  0.86730  Biso   1.000  H
  H75      1.0000 0.29990  0.79630  0.36730  Biso   1.000  H
  H76      1.0000 0.20010  0.29630  0.13270  Biso   1.000  H
  C121     1.0000 0.58827  0.17852  0.53875  Biso   1.000  C
  C122     1.0000 0.91173  0.67852  0.96125  Biso   1.000  C
  C123     1.0000 0.41173  0.82148  0.46125  Biso   1.000  C
  C124     1.0000 0.08827  0.32148  0.03875  Biso   1.000  C
  H77      1.0000 0.53420  0.22740  0.54070  Biso   1.000  H
  H78      1.0000 0.96580  0.72740  0.95930  Biso   1.000  H
  H79      1.0000 0.46580  0.77260  0.45930  Biso   1.000  H
  H80      1.0000 0.03420  0.27260  0.04070  Biso   1.000  H
  C125     1.0000 0.56728  0.12054  0.48015  Biso   1.000  C
  C126     1.0000 0.93272  0.62054  0.01985  Biso   1.000  C
  C127     1.0000 0.43272  0.87946  0.51985  Biso   1.000  C
  C128     1.0000 0.06728  0.37946  0.98015  Biso   1.000  C
  S9       1.0000 0.88731  0.14036  0.86692  Biso   1.000  S
  S10      1.0000 0.61269  0.64036  0.63308  Biso   1.000  S
  S11      1.0000 0.11269  0.85964  0.13308  Biso   1.000  S
  S12      1.0000 0.38731  0.35964  0.36692  Biso   1.000  S
  C129     1.0000 0.92172  0.18967  0.79320  Biso   1.000  C
  C130     1.0000 0.57828  0.68967  0.70680  Biso   1.000  C
  C131     1.0000 0.07828  0.81033  0.20680  Biso   1.000  C
  C132     1.0000 0.42172  0.31033  0.29320  Biso   1.000  C
  N17      1.0000 0.94467  0.22612  0.74228  Biso   1.000  N
  N18      1.0000 0.55533  0.72612  0.75772  Biso   1.000  N
  N19      1.0000 0.05533  0.77388  0.25772  Biso   1.000  N
  N20      1.0000 0.44467  0.27388  0.24228  Biso   1.000  N
  S13      1.0000 0.11908  0.18428  0.61850  Biso   1.000  S
  S14      1.0000 0.38092  0.68428  0.88150  Biso   1.000  S
  S15      1.0000 0.88092  0.81572  0.38150  Biso   1.000  S
  S16      1.0000 0.61908  0.31572  0.11850  Biso   1.000  S
  C133     1.0000 0.18991  0.21742  0.55039  Biso   1.000  C
  C134     1.0000 0.31009  0.71742  0.94961  Biso   1.000  C
  C135     1.0000 0.81009  0.78258  0.44961  Biso   1.000  C
  C136     1.0000 0.68991  0.28258  0.05039  Biso   1.000  C
  N21      1.0000 0.24005  0.23596  0.50159  Biso   1.000  N
  N22      1.0000 0.25995  0.73596  0.99841  Biso   1.000  N
  N23      1.0000 0.75995  0.76404  0.49841  Biso   1.000  N
  N24      1.0000 0.74005  0.26404  0.00159  Biso   1.000  N
  S17      1.0000 0.99230  0.56633  0.59759  Biso   1.000  S
  S18      1.0000 0.50770  0.06633  0.90241  Biso   1.000  S
  S19      1.0000 0.00770  0.43367  0.40241  Biso   1.000  S
  S20      1.0000 0.49230  0.93367  0.09759  Biso   1.000  S
  C137     1.0000 0.24830  0.53180  0.70800  Biso   1.000  C
  C138     1.0000 0.25170  0.03180  0.79200  Biso   1.000  C
  C139     1.0000 0.75170  0.46820  0.29200  Biso   1.000  C
  C140     1.0000 0.74830  0.96820  0.20800  Biso   1.000  C
  H81      1.0000 0.23660  0.58040  0.67550  Biso   1.000  H
  H82      1.0000 0.26340  0.08040  0.82450  Biso   1.000  H
  H83      1.0000 0.76340  0.41960  0.32450  Biso   1.000  H
  H84      1.0000 0.73660  0.91960  0.17550  Biso   1.000  H
  C141     1.0000 0.34730  0.52090  0.76330  Biso   1.000  C
  C142     1.0000 0.15270  0.02090  0.73670  Biso   1.000  C
  C143     1.0000 0.65270  0.47910  0.23670  Biso   1.000  C
  C144     1.0000 0.84730  0.97910  0.26330  Biso   1.000  C
  H85      1.0000 0.41840  0.56000  0.77010  Biso   1.000  H
  H86      1.0000 0.08160  0.06000  0.72990  Biso   1.000  H
  H87      1.0000 0.58160  0.44000  0.22990  Biso   1.000  H
  H88      1.0000 0.91840  0.94000  0.27010  Biso   1.000  H
  S21      1.0000 0.58380  0.00100  0.40210  Biso   1.000  S
  S22      1.0000 0.91620  0.50100  0.09790  Biso   1.000  S
  S23      1.0000 0.41620  0.99900  0.59790  Biso   1.000  S
  S24      1.0000 0.08380  0.49900  0.90210  Biso   1.000  S
  C145     1.0000 0.35760  0.02370  0.27210  Biso   1.000  C
  C146     1.0000 0.14240  0.52370  0.22790  Biso   1.000  C
  C147     1.0000 0.64240  0.97630  0.72790  Biso   1.000  C
  C148     1.0000 0.85760  0.47630  0.77210  Biso   1.000  C
  H89      1.0000 0.42630  0.98260  0.27690  Biso   1.000  H
  H90      1.0000 0.07370  0.48260  0.22310  Biso   1.000  H
  H91      1.0000 0.57370  0.01740  0.72310  Biso   1.000  H
  H92      1.0000 0.92630  0.51740  0.77690  Biso   1.000  H
  C149     1.0000 0.25910  0.03390  0.22030  Biso   1.000  C
  C150     1.0000 0.24090  0.53390  0.27970  Biso   1.000  C
  C151     1.0000 0.74090  0.96610  0.77970  Biso   1.000  C
  C152     1.0000 0.75910  0.46610  0.72030  Biso   1.000  C
  H93      1.0000 0.25310  0.99560  0.17940  Biso   1.000  H
  H94      1.0000 0.24690  0.49560  0.32060  Biso   1.000  H
  H95      1.0000 0.74690  0.00440  0.82060  Biso   1.000  H
  H96      1.0000 0.75310  0.50440  0.67940  Biso   1.000  H
