data_image0
_cell_length_a       8.2744
_cell_length_b       9.2263
_cell_length_c       16.6519
_cell_angle_alpha    104.194
_cell_angle_beta     90
_cell_angle_gamma    90

_symmetry_space_group_name_H-M    "P 1"
_symmetry_int_tables_number       1

loop_
  _symmetry_equiv_pos_as_xyz
  'x, y, z'

loop_
  _atom_site_label
  _atom_site_occupancy
  _atom_site_fract_x
  _atom_site_fract_y
  _atom_site_fract_z
  _atom_site_thermal_displace_type
  _atom_site_B_iso_or_equiv
  _atom_site_type_symbol
  Cu1      1.0000 0.88328  0.35907  0.32078  Biso   1.000  Cu
  Cu2      1.0000 0.88328  0.64093  0.67922  Biso   1.000  Cu
  Cu3      1.0000 0.38328  0.85907  0.82078  Biso   1.000  Cu
  Cu4      1.0000 0.38328  0.14093  0.17922  Biso   1.000  Cu
  C1       1.0000 0.09000  0.31748  0.26758  Biso   1.000  C
  C2       1.0000 0.09000  0.68252  0.73242  Biso   1.000  C
  C3       1.0000 0.59000  0.81748  0.76758  Biso   1.000  C
  C4       1.0000 0.59000  0.18252  0.23242  Biso   1.000  C
  N1       1.0000 0.20680  0.27099  0.23249  Biso   1.000  N
  N2       1.0000 0.20680  0.72901  0.76751  Biso   1.000  N
  N3       1.0000 0.70680  0.77099  0.73249  Biso   1.000  N
  N4       1.0000 0.70680  0.22901  0.26751  Biso   1.000  N
  P1       1.0000 0.29009  0.94768  0.08170  Biso   1.000  P
  P2       1.0000 0.29009  0.05232  0.91830  Biso   1.000  P
  P3       1.0000 0.79009  0.44768  0.58170  Biso   1.000  P
  P4       1.0000 0.79009  0.55232  0.41830  Biso   1.000  P
  C5       1.0000 0.16790  0.00000  0.00000  Biso   1.000  C
  C6       1.0000 0.66790  0.50000  0.50000  Biso   1.000  C
  C7       1.0000 0.43470  0.18623  0.97683  Biso   1.000  C
  C8       1.0000 0.43470  0.81377  0.02317  Biso   1.000  C
  C9       1.0000 0.93470  0.68623  0.47683  Biso   1.000  C
  C10      1.0000 0.93470  0.31377  0.52317  Biso   1.000  C
  C11      1.0000 0.59640  0.17014  0.95364  Biso   1.000  C
  C12      1.0000 0.59640  0.82986  0.04636  Biso   1.000  C
  C13      1.0000 0.09640  0.67014  0.45364  Biso   1.000  C
  C14      1.0000 0.09640  0.32986  0.54636  Biso   1.000  C
  C15      1.0000 0.71270  0.26580  0.99810  Biso   1.000  C
  C16      1.0000 0.71270  0.73420  0.00190  Biso   1.000  C
  C17      1.0000 0.21270  0.76580  0.49810  Biso   1.000  C
  C18      1.0000 0.21270  0.23420  0.50190  Biso   1.000  C
  C19      1.0000 0.66740  0.37760  0.06650  Biso   1.000  C
  C20      1.0000 0.66740  0.62240  0.93350  Biso   1.000  C
  C21      1.0000 0.16740  0.87760  0.56650  Biso   1.000  C
  C22      1.0000 0.16740  0.12240  0.43350  Biso   1.000  C
  C23      1.0000 0.50640  0.39503  0.09033  Biso   1.000  C
  C24      1.0000 0.50640  0.60497  0.90967  Biso   1.000  C
  C25      1.0000 0.00640  0.89503  0.59033  Biso   1.000  C
  C26      1.0000 0.00640  0.10497  0.40967  Biso   1.000  C
  C27      1.0000 0.38930  0.29991  0.04611  Biso   1.000  C
  C28      1.0000 0.38930  0.70009  0.95389  Biso   1.000  C
  C29      1.0000 0.88930  0.79991  0.54611  Biso   1.000  C
  C30      1.0000 0.88930  0.20009  0.45389  Biso   1.000  C
  C31      1.0000 0.14250  0.16227  0.87677  Biso   1.000  C
  C32      1.0000 0.14250  0.83773  0.12323  Biso   1.000  C
  C33      1.0000 0.64250  0.66227  0.37677  Biso   1.000  C
  C34      1.0000 0.64250  0.33773  0.62323  Biso   1.000  C
  C35      1.0000 0.15890  0.31469  0.88239  Biso   1.000  C
  C36      1.0000 0.15890  0.68531  0.11761  Biso   1.000  C
  C37      1.0000 0.65890  0.81469  0.38239  Biso   1.000  C
  C38      1.0000 0.65890  0.18531  0.61761  Biso   1.000  C
  C39      1.0000 0.04540  0.38881  0.84481  Biso   1.000  C
  C40      1.0000 0.04540  0.61119  0.15519  Biso   1.000  C
  C41      1.0000 0.54540  0.88881  0.34481  Biso   1.000  C
  C42      1.0000 0.54540  0.11119  0.65519  Biso   1.000  C
  C43      1.0000 0.91520  0.31137  0.80187  Biso   1.000  C
  C44      1.0000 0.91520  0.68863  0.19813  Biso   1.000  C
  C45      1.0000 0.41520  0.81137  0.30187  Biso   1.000  C
  C46      1.0000 0.41520  0.18863  0.69813  Biso   1.000  C
  C47      1.0000 0.89690  0.15962  0.79702  Biso   1.000  C
  C48      1.0000 0.89690  0.84038  0.20298  Biso   1.000  C
  C49      1.0000 0.39690  0.65962  0.29702  Biso   1.000  C
  C50      1.0000 0.39690  0.34038  0.70298  Biso   1.000  C
  C51      1.0000 0.01060  0.08469  0.83359  Biso   1.000  C
  C52      1.0000 0.01060  0.91531  0.16641  Biso   1.000  C
  C53      1.0000 0.51060  0.58469  0.33359  Biso   1.000  C
  C54      1.0000 0.51060  0.41531  0.66641  Biso   1.000  C
  H1       1.0000 0.10300  0.07300  0.02800  Biso   1.000  H
  H2       1.0000 0.10300  0.92700  0.97200  Biso   1.000  H
  H3       1.0000 0.60300  0.57300  0.52800  Biso   1.000  H
  H4       1.0000 0.60300  0.42700  0.47200  Biso   1.000  H
  H5       1.0000 0.62600  0.09700  0.91100  Biso   1.000  H
  H6       1.0000 0.62600  0.90300  0.08900  Biso   1.000  H
  H7       1.0000 0.12600  0.59700  0.41100  Biso   1.000  H
  H8       1.0000 0.12600  0.40300  0.58900  Biso   1.000  H
  H9       1.0000 0.83100  0.24500  0.98300  Biso   1.000  H
  H10      1.0000 0.83100  0.75500  0.01700  Biso   1.000  H
  H11      1.0000 0.33100  0.74500  0.48300  Biso   1.000  H
  H12      1.0000 0.33100  0.25500  0.51700  Biso   1.000  H
  H13      1.0000 0.73800  0.44500  0.09900  Biso   1.000  H
  H14      1.0000 0.73800  0.55500  0.90100  Biso   1.000  H
  H15      1.0000 0.23800  0.94500  0.59900  Biso   1.000  H
  H16      1.0000 0.23800  0.05500  0.40100  Biso   1.000  H
  H17      1.0000 0.48000  0.47400  0.14200  Biso   1.000  H
  H18      1.0000 0.48000  0.52600  0.85800  Biso   1.000  H
  H19      1.0000 0.98000  0.97400  0.64200  Biso   1.000  H
  H20      1.0000 0.98000  0.02600  0.35800  Biso   1.000  H
  H21      1.0000 0.29200  0.31840  0.06740  Biso   1.000  H
  H22      1.0000 0.29200  0.68160  0.93260  Biso   1.000  H
  H23      1.0000 0.79200  0.81840  0.56740  Biso   1.000  H
  H24      1.0000 0.79200  0.18160  0.43260  Biso   1.000  H
  H25      1.0000 0.24800  0.36700  0.91000  Biso   1.000  H
  H26      1.0000 0.24800  0.63300  0.09000  Biso   1.000  H
  H27      1.0000 0.74800  0.86700  0.41000  Biso   1.000  H
  H28      1.0000 0.74800  0.13300  0.59000  Biso   1.000  H
  H29      1.0000 0.06000  0.48500  0.84500  Biso   1.000  H
  H30      1.0000 0.06000  0.51500  0.15500  Biso   1.000  H
  H31      1.0000 0.56000  0.98500  0.34500  Biso   1.000  H
  H32      1.0000 0.56000  0.01500  0.65500  Biso   1.000  H
  H33      1.0000 0.83900  0.35900  0.77500  Biso   1.000  H
  H34      1.0000 0.83900  0.64100  0.22500  Biso   1.000  H
  H35      1.0000 0.33900  0.85900  0.27500  Biso   1.000  H
  H36      1.0000 0.33900  0.14100  0.72500  Biso   1.000  H
  H37      1.0000 0.80300  0.10900  0.77000  Biso   1.000  H
  H38      1.0000 0.80300  0.89100  0.23000  Biso   1.000  H
  H39      1.0000 0.30300  0.60900  0.27000  Biso   1.000  H
  H40      1.0000 0.30300  0.39100  0.73000  Biso   1.000  H
  H41      1.0000 0.99400  0.98900  0.83200  Biso   1.000  H
  H42      1.0000 0.99400  0.01100  0.16800  Biso   1.000  H
  H43      1.0000 0.49400  0.48900  0.33200  Biso   1.000  H
  H44      1.0000 0.49400  0.51100  0.66800  Biso   1.000  H
