data_image0
_cell_length_a       10.673
_cell_length_b       17.2104
_cell_length_c       19.808
_cell_angle_alpha    90
_cell_angle_beta     90
_cell_angle_gamma    95.9744

_symmetry_space_group_name_H-M    "P 1"
_symmetry_int_tables_number       1

loop_
  _symmetry_equiv_pos_as_xyz
  'x, y, z'

loop_
  _atom_site_label
  _atom_site_occupancy
  _atom_site_fract_x
  _atom_site_fract_y
  _atom_site_fract_z
  _atom_site_thermal_displace_type
  _atom_site_B_iso_or_equiv
  _atom_site_type_symbol
  W1       1.0000 0.03962  0.24543  0.82579  Biso   1.000  W
  W2       1.0000 0.46038  0.25457  0.32579  Biso   1.000  W
  W3       1.0000 0.96038  0.75457  0.17421  Biso   1.000  W
  W4       1.0000 0.53962  0.74543  0.67421  Biso   1.000  W
  Ce1      1.0000 0.15050  0.36265  0.10292  Biso   1.000  Ce
  Ce2      1.0000 0.34950  0.13735  0.60292  Biso   1.000  Ce
  Ce3      1.0000 0.84950  0.63735  0.89708  Biso   1.000  Ce
  Ce4      1.0000 0.65050  0.86265  0.39708  Biso   1.000  Ce
  N1       1.0000 0.09424  0.30534  0.98299  Biso   1.000  N
  N2       1.0000 0.40576  0.19466  0.48299  Biso   1.000  N
  N3       1.0000 0.90576  0.69466  0.01701  Biso   1.000  N
  N4       1.0000 0.59424  0.80534  0.51701  Biso   1.000  N
  C1       1.0000 0.07713  0.28413  0.92897  Biso   1.000  C
  C2       1.0000 0.42287  0.21587  0.42897  Biso   1.000  C
  C3       1.0000 0.92287  0.71587  0.07103  Biso   1.000  C
  C4       1.0000 0.57713  0.78413  0.57103  Biso   1.000  C
  C5       1.0000 0.21480  0.32030  0.82669  Biso   1.000  C
  C6       1.0000 0.28520  0.17970  0.32669  Biso   1.000  C
  C7       1.0000 0.78520  0.67970  0.17331  Biso   1.000  C
  C8       1.0000 0.71480  0.82030  0.67331  Biso   1.000  C
  N5       1.0000 0.30890  0.35910  0.82600  Biso   1.000  N
  N6       1.0000 0.19110  0.14090  0.32600  Biso   1.000  N
  N7       1.0000 0.69110  0.64090  0.17400  Biso   1.000  N
  N8       1.0000 0.80890  0.85910  0.67400  Biso   1.000  N
  C9       1.0000 0.15094  0.19664  0.74820  Biso   1.000  C
  C10      1.0000 0.34906  0.30336  0.24820  Biso   1.000  C
  C11      1.0000 0.84906  0.80336  0.25180  Biso   1.000  C
  C12      1.0000 0.65094  0.69664  0.75180  Biso   1.000  C
  N9       1.0000 0.20868  0.17128  0.70602  Biso   1.000  N
  N10      1.0000 0.29132  0.32872  0.20602  Biso   1.000  N
  N11      1.0000 0.79132  0.82872  0.29398  Biso   1.000  N
  N12      1.0000 0.70868  0.67128  0.79398  Biso   1.000  N
  C13      1.0000 0.13380  0.15230  0.86780  Biso   1.000  C
  C14      1.0000 0.36620  0.34770  0.36780  Biso   1.000  C
  C15      1.0000 0.86620  0.84770  0.13220  Biso   1.000  C
  C16      1.0000 0.63380  0.65230  0.63220  Biso   1.000  C
  N13      1.0000 0.18380  0.10270  0.88910  Biso   1.000  N
  N14      1.0000 0.31620  0.39730  0.38910  Biso   1.000  N
  N15      1.0000 0.81620  0.89730  0.11090  Biso   1.000  N
  N16      1.0000 0.68380  0.60270  0.61090  Biso   1.000  N
  C17      1.0000 0.91310  0.33290  0.84480  Biso   1.000  C
  C18      1.0000 0.58690  0.16710  0.34480  Biso   1.000  C
  C19      1.0000 0.08690  0.66710  0.15520  Biso   1.000  C
  C20      1.0000 0.41310  0.83290  0.65520  Biso   1.000  C
  N17      1.0000 0.84760  0.37970  0.85610  Biso   1.000  N
  N18      1.0000 0.65240  0.12030  0.35610  Biso   1.000  N
  N19      1.0000 0.15240  0.62030  0.14390  Biso   1.000  N
  N20      1.0000 0.34760  0.87970  0.64390  Biso   1.000  N
  C21      1.0000 0.02840  0.31570  0.73580  Biso   1.000  C
  C22      1.0000 0.47160  0.18430  0.23580  Biso   1.000  C
  C23      1.0000 0.97160  0.68430  0.26420  Biso   1.000  C
  C24      1.0000 0.52840  0.81570  0.76420  Biso   1.000  C
  N21      1.0000 0.02060  0.35190  0.68770  Biso   1.000  N
  N22      1.0000 0.47940  0.14810  0.18770  Biso   1.000  N
  N23      1.0000 0.97940  0.64810  0.31230  Biso   1.000  N
  N24      1.0000 0.52060  0.85190  0.81230  Biso   1.000  N
  C25      1.0000 0.90600  0.17550  0.76418  Biso   1.000  C
  C26      1.0000 0.59400  0.32450  0.26418  Biso   1.000  C
  C27      1.0000 0.09400  0.82450  0.23582  Biso   1.000  C
  C28      1.0000 0.40600  0.67550  0.73582  Biso   1.000  C
  N25      1.0000 0.83950  0.13630  0.73020  Biso   1.000  N
  N26      1.0000 0.66050  0.36370  0.23020  Biso   1.000  N
  N27      1.0000 0.16050  0.86370  0.26980  Biso   1.000  N
  N28      1.0000 0.33950  0.63630  0.76980  Biso   1.000  N
  C29      1.0000 0.89730  0.18530  0.89050  Biso   1.000  C
  C30      1.0000 0.60270  0.31470  0.39050  Biso   1.000  C
  C31      1.0000 0.10270  0.81470  0.10950  Biso   1.000  C
  C32      1.0000 0.39730  0.68530  0.60950  Biso   1.000  C
  N29      1.0000 0.82170  0.15430  0.92510  Biso   1.000  N
  N30      1.0000 0.67830  0.34570  0.42510  Biso   1.000  N
  N31      1.0000 0.17830  0.84570  0.07490  Biso   1.000  N
  N32      1.0000 0.32170  0.65430  0.57490  Biso   1.000  N
  O1       1.0000 0.05470  0.40630  0.20491  Biso   1.000  O
  O2       1.0000 0.44530  0.09370  0.70491  Biso   1.000  O
  O3       1.0000 0.94530  0.59370  0.79509  Biso   1.000  O
  O4       1.0000 0.55470  0.90630  0.29509  Biso   1.000  O
  C33      1.0000 0.03840  0.44000  0.25940  Biso   1.000  C
  C34      1.0000 0.46160  0.06000  0.75940  Biso   1.000  C
  C35      1.0000 0.96160  0.56000  0.74060  Biso   1.000  C
  C36      1.0000 0.53840  0.94000  0.24060  Biso   1.000  C
  H1       1.0000 0.05010  0.49430  0.25930  Biso   1.000  H
  H2       1.0000 0.44990  0.00570  0.75930  Biso   1.000  H
  H3       1.0000 0.94990  0.50570  0.74070  Biso   1.000  H
  H4       1.0000 0.55010  0.99430  0.24070  Biso   1.000  H
  N33      1.0000 0.00730  0.40650  0.31512  Biso   1.000  N
  N34      1.0000 0.49270  0.09350  0.81512  Biso   1.000  N
  N35      1.0000 0.99270  0.59350  0.68488  Biso   1.000  N
  N36      1.0000 0.50730  0.90650  0.18488  Biso   1.000  N
  C37      1.0000 0.99210  0.32230  0.31870  Biso   1.000  C
  C38      1.0000 0.50790  0.17770  0.81870  Biso   1.000  C
  C39      1.0000 0.00790  0.67770  0.68130  Biso   1.000  C
  C40      1.0000 0.49210  0.82230  0.18130  Biso   1.000  C
  H5       1.0000 0.03560  0.30130  0.28160  Biso   1.000  H
  H6       1.0000 0.46440  0.19870  0.78160  Biso   1.000  H
  H7       1.0000 0.96440  0.69870  0.71840  Biso   1.000  H
  H8       1.0000 0.53560  0.80130  0.21840  Biso   1.000  H
  H9       1.0000 0.90420  0.30390  0.31640  Biso   1.000  H
  H10      1.0000 0.59580  0.19610  0.81640  Biso   1.000  H
  H11      1.0000 0.09580  0.69610  0.68360  Biso   1.000  H
  H12      1.0000 0.40420  0.80390  0.18360  Biso   1.000  H
  H13      1.0000 0.02650  0.30580  0.36040  Biso   1.000  H
  H14      1.0000 0.47350  0.19420  0.86040  Biso   1.000  H
  H15      1.0000 0.97350  0.69420  0.63960  Biso   1.000  H
  H16      1.0000 0.52650  0.80580  0.13960  Biso   1.000  H
  C41      1.0000 0.99330  0.44690  0.37850  Biso   1.000  C
  C42      1.0000 0.50670  0.05310  0.87850  Biso   1.000  C
  C43      1.0000 0.00670  0.55310  0.62150  Biso   1.000  C
  C44      1.0000 0.49330  0.94690  0.12150  Biso   1.000  C
  H17      1.0000 0.00430  0.50230  0.37090  Biso   1.000  H
  H18      1.0000 0.49570  0.99770  0.87090  Biso   1.000  H
  H19      1.0000 0.99570  0.49770  0.62910  Biso   1.000  H
  H20      1.0000 0.50430  0.00230  0.12910  Biso   1.000  H
  H21      1.0000 0.05560  0.43290  0.41000  Biso   1.000  H
  H22      1.0000 0.44440  0.06710  0.91000  Biso   1.000  H
  H23      1.0000 0.94440  0.56710  0.59000  Biso   1.000  H
  H24      1.0000 0.55560  0.93290  0.09000  Biso   1.000  H
  H25      1.0000 0.91070  0.43220  0.39650  Biso   1.000  H
  H26      1.0000 0.58930  0.06780  0.89650  Biso   1.000  H
  H27      1.0000 0.08930  0.56780  0.60350  Biso   1.000  H
  H28      1.0000 0.41070  0.93220  0.10350  Biso   1.000  H
  O5       1.0000 0.95523  0.27533  0.12085  Biso   1.000  O
  O6       1.0000 0.54477  0.22467  0.62085  Biso   1.000  O
  O7       1.0000 0.04477  0.72467  0.87915  Biso   1.000  O
  O8       1.0000 0.45523  0.77533  0.37915  Biso   1.000  O
  C45      1.0000 0.90840  0.21350  0.09690  Biso   1.000  C
  C46      1.0000 0.59160  0.28650  0.59690  Biso   1.000  C
  C47      1.0000 0.09160  0.78650  0.90310  Biso   1.000  C
  C48      1.0000 0.40840  0.71350  0.40310  Biso   1.000  C
  H29      1.0000 0.91850  0.20580  0.05080  Biso   1.000  H
  H30      1.0000 0.58150  0.29420  0.55080  Biso   1.000  H
  H31      1.0000 0.08150  0.79420  0.94920  Biso   1.000  H
  H32      1.0000 0.41850  0.70580  0.44920  Biso   1.000  H
  N37      1.0000 0.84570  0.15780  0.13090  Biso   1.000  N
  N38      1.0000 0.65430  0.34220  0.63090  Biso   1.000  N
  N39      1.0000 0.15430  0.84220  0.86910  Biso   1.000  N
  N40      1.0000 0.34570  0.65780  0.36910  Biso   1.000  N
  C49      1.0000 0.78870  0.08810  0.09750  Biso   1.000  C
  C50      1.0000 0.71130  0.41190  0.59750  Biso   1.000  C
  C51      1.0000 0.21130  0.91190  0.90250  Biso   1.000  C
  C52      1.0000 0.28870  0.58810  0.40250  Biso   1.000  C
  H33      1.0000 0.81300  0.08930  0.05080  Biso   1.000  H
  H34      1.0000 0.68700  0.41070  0.55080  Biso   1.000  H
  H35      1.0000 0.18700  0.91070  0.94920  Biso   1.000  H
  H36      1.0000 0.31300  0.58930  0.44920  Biso   1.000  H
  H37      1.0000 0.69870  0.08590  0.10080  Biso   1.000  H
  H38      1.0000 0.80130  0.41410  0.60080  Biso   1.000  H
  H39      1.0000 0.30130  0.91410  0.89920  Biso   1.000  H
  H40      1.0000 0.19870  0.58590  0.39920  Biso   1.000  H
  H41      1.0000 0.81670  0.04280  0.11870  Biso   1.000  H
  H42      1.0000 0.68330  0.45720  0.61870  Biso   1.000  H
  H43      1.0000 0.18330  0.95720  0.88130  Biso   1.000  H
  H44      1.0000 0.31670  0.54280  0.38130  Biso   1.000  H
  C53      1.0000 0.82870  0.16520  0.20220  Biso   1.000  C
  C54      1.0000 0.67130  0.33480  0.70220  Biso   1.000  C
  C55      1.0000 0.17130  0.83480  0.79780  Biso   1.000  C
  C56      1.0000 0.32870  0.66520  0.29780  Biso   1.000  C
  H45      1.0000 0.84020  0.21940  0.21450  Biso   1.000  H
  H46      1.0000 0.65980  0.28060  0.71450  Biso   1.000  H
  H47      1.0000 0.15980  0.78060  0.78550  Biso   1.000  H
  H48      1.0000 0.34020  0.71940  0.28550  Biso   1.000  H
  H49      1.0000 0.88930  0.13760  0.22550  Biso   1.000  H
  H50      1.0000 0.61070  0.36240  0.72550  Biso   1.000  H
  H51      1.0000 0.11070  0.86240  0.77450  Biso   1.000  H
  H52      1.0000 0.38930  0.63760  0.27450  Biso   1.000  H
  H53      1.0000 0.74520  0.14360  0.21430  Biso   1.000  H
  H54      1.0000 0.75480  0.35640  0.71430  Biso   1.000  H
  H55      1.0000 0.25480  0.85640  0.78570  Biso   1.000  H
  H56      1.0000 0.24520  0.64360  0.28570  Biso   1.000  H
  O9       1.0000 0.19521  0.22341  0.10073  Biso   1.000  O
  O10      1.0000 0.30479  0.27659  0.60073  Biso   1.000  O
  O11      1.0000 0.80479  0.77659  0.89927  Biso   1.000  O
  O12      1.0000 0.69521  0.72341  0.39927  Biso   1.000  O
  C57      1.0000 0.18310  0.16590  0.13900  Biso   1.000  C
  C58      1.0000 0.31690  0.33410  0.63900  Biso   1.000  C
  C59      1.0000 0.81690  0.83410  0.86100  Biso   1.000  C
  C60      1.0000 0.68310  0.66590  0.36100  Biso   1.000  C
  H57      1.0000 0.18150  0.17540  0.18520  Biso   1.000  H
  H58      1.0000 0.31850  0.32460  0.68520  Biso   1.000  H
  H59      1.0000 0.81850  0.82460  0.81480  Biso   1.000  H
  H60      1.0000 0.68150  0.67540  0.31480  Biso   1.000  H
  N41      1.0000 0.17250  0.09360  0.11930  Biso   1.000  N
  N42      1.0000 0.32750  0.40640  0.61930  Biso   1.000  N
  N43      1.0000 0.82750  0.90640  0.88070  Biso   1.000  N
  N44      1.0000 0.67250  0.59360  0.38070  Biso   1.000  N
  C61      1.0000 0.17400  0.07250  0.05170  Biso   1.000  C
  C62      1.0000 0.32600  0.42750  0.55170  Biso   1.000  C
  C63      1.0000 0.82600  0.92750  0.94830  Biso   1.000  C
  C64      1.0000 0.67400  0.57250  0.44830  Biso   1.000  C
  H61      1.0000 0.25850  0.06520  0.03850  Biso   1.000  H
  H62      1.0000 0.24150  0.43480  0.53850  Biso   1.000  H
  H63      1.0000 0.74150  0.93480  0.96150  Biso   1.000  H
  H64      1.0000 0.75850  0.56520  0.46150  Biso   1.000  H
  H65      1.0000 0.14410  0.11310  0.02470  Biso   1.000  H
  H66      1.0000 0.35590  0.38690  0.52470  Biso   1.000  H
  H67      1.0000 0.85590  0.88690  0.97530  Biso   1.000  H
  H68      1.0000 0.64410  0.61310  0.47530  Biso   1.000  H
  H69      1.0000 0.12040  0.02470  0.04510  Biso   1.000  H
  H70      1.0000 0.37960  0.47530  0.54510  Biso   1.000  H
  H71      1.0000 0.87960  0.97530  0.95490  Biso   1.000  H
  H72      1.0000 0.62040  0.52470  0.45490  Biso   1.000  H
  C65      1.0000 0.16390  0.03010  0.16920  Biso   1.000  C
  C66      1.0000 0.33610  0.46990  0.66920  Biso   1.000  C
  C67      1.0000 0.83610  0.96990  0.83080  Biso   1.000  C
  C68      1.0000 0.66390  0.53010  0.33080  Biso   1.000  C
  H73      1.0000 0.13620  0.04910  0.21170  Biso   1.000  H
  H74      1.0000 0.36380  0.45090  0.71170  Biso   1.000  H
  H75      1.0000 0.86380  0.95090  0.78830  Biso   1.000  H
  H76      1.0000 0.63620  0.54910  0.28830  Biso   1.000  H
  H77      1.0000 0.24510  0.01170  0.17470  Biso   1.000  H
  H78      1.0000 0.25490  0.48830  0.67470  Biso   1.000  H
  H79      1.0000 0.75490  0.98830  0.82530  Biso   1.000  H
  H80      1.0000 0.74510  0.51170  0.32530  Biso   1.000  H
  H81      1.0000 0.10460  0.98800  0.15390  Biso   1.000  H
  H82      1.0000 0.39540  0.51200  0.65390  Biso   1.000  H
  H83      1.0000 0.89540  0.01200  0.84610  Biso   1.000  H
  H84      1.0000 0.60460  0.48800  0.34610  Biso   1.000  H
  O13      1.0000 0.36103  0.35913  0.05282  Biso   1.000  O
  O14      1.0000 0.13897  0.14087  0.55282  Biso   1.000  O
  O15      1.0000 0.63897  0.64087  0.94718  Biso   1.000  O
  O16      1.0000 0.86103  0.85913  0.44718  Biso   1.000  O
  C69      1.0000 0.44380  0.31480  0.06210  Biso   1.000  C
  C70      1.0000 0.05620  0.18520  0.56210  Biso   1.000  C
  C71      1.0000 0.55620  0.68520  0.93790  Biso   1.000  C
  C72      1.0000 0.94380  0.81480  0.43790  Biso   1.000  C
  H85      1.0000 0.44360  0.28860  0.10320  Biso   1.000  H
  H86      1.0000 0.05640  0.21140  0.60320  Biso   1.000  H
  H87      1.0000 0.55640  0.71140  0.89680  Biso   1.000  H
  H88      1.0000 0.94360  0.78860  0.39680  Biso   1.000  H
  N45      1.0000 0.53070  0.30220  0.01880  Biso   1.000  N
  N46      1.0000 0.96930  0.19780  0.51880  Biso   1.000  N
  N47      1.0000 0.46930  0.69780  0.98120  Biso   1.000  N
  N48      1.0000 0.03070  0.80220  0.48120  Biso   1.000  N
  C73      1.0000 0.53670  0.34190  0.95460  Biso   1.000  C
  C74      1.0000 0.96330  0.15810  0.45460  Biso   1.000  C
  C75      1.0000 0.46330  0.65810  0.04540  Biso   1.000  C
  C76      1.0000 0.03670  0.84190  0.54540  Biso   1.000  C
  H89      1.0000 0.54940  0.39730  0.96180  Biso   1.000  H
  H90      1.0000 0.95060  0.10270  0.46180  Biso   1.000  H
  H91      1.0000 0.45060  0.60270  0.03820  Biso   1.000  H
  H92      1.0000 0.04940  0.89730  0.53820  Biso   1.000  H
  H93      1.0000 0.45910  0.32890  0.93060  Biso   1.000  H
  H94      1.0000 0.04090  0.17110  0.43060  Biso   1.000  H
  H95      1.0000 0.54090  0.67110  0.06940  Biso   1.000  H
  H96      1.0000 0.95910  0.82890  0.56940  Biso   1.000  H
  H97      1.0000 0.60540  0.32580  0.92860  Biso   1.000  H
  H98      1.0000 0.89460  0.17420  0.42860  Biso   1.000  H
  H99      1.0000 0.39460  0.67420  0.07140  Biso   1.000  H
  H100     1.0000 0.10540  0.82580  0.57140  Biso   1.000  H
  C77      1.0000 0.62700  0.25040  0.03530  Biso   1.000  C
  C78      1.0000 0.87300  0.24960  0.53530  Biso   1.000  C
  C79      1.0000 0.37300  0.74960  0.96470  Biso   1.000  C
  C80      1.0000 0.12700  0.75040  0.46470  Biso   1.000  C
  H101     1.0000 0.63660  0.24790  0.08340  Biso   1.000  H
  H102     1.0000 0.86340  0.25210  0.58340  Biso   1.000  H
  H103     1.0000 0.36340  0.75210  0.91660  Biso   1.000  H
  H104     1.0000 0.13660  0.74790  0.41660  Biso   1.000  H
  H105     1.0000 0.70570  0.27030  0.01520  Biso   1.000  H
  H106     1.0000 0.79430  0.22970  0.51520  Biso   1.000  H
  H107     1.0000 0.29430  0.72970  0.98480  Biso   1.000  H
  H108     1.0000 0.20570  0.77030  0.48480  Biso   1.000  H
  H109     1.0000 0.60170  0.19900  0.01800  Biso   1.000  H
  H110     1.0000 0.89830  0.30100  0.51800  Biso   1.000  H
  H111     1.0000 0.39830  0.80100  0.98200  Biso   1.000  H
  H112     1.0000 0.10170  0.69900  0.48200  Biso   1.000  H
  C81      1.0000 0.94134  0.49164  0.01999  Biso   1.000  C
  C82      1.0000 0.55866  0.00836  0.51999  Biso   1.000  C
  C83      1.0000 0.05866  0.50836  0.98001  Biso   1.000  C
  C84      1.0000 0.44134  0.99164  0.48001  Biso   1.000  C
  N49      1.0000 0.84308  0.52758  0.00064  Biso   1.000  N
  N50      1.0000 0.65692  0.97242  0.50064  Biso   1.000  N
  N51      1.0000 0.15692  0.47242  0.99936  Biso   1.000  N
  N52      1.0000 0.34308  0.02758  0.49936  Biso   1.000  N
  C85      1.0000 0.73750  0.51280  0.03750  Biso   1.000  C
  C86      1.0000 0.76250  0.98720  0.53750  Biso   1.000  C
  C87      1.0000 0.26250  0.48720  0.96250  Biso   1.000  C
  C88      1.0000 0.23750  0.01280  0.46250  Biso   1.000  C
  H113     1.0000 0.66620  0.53660  0.02590  Biso   1.000  H
  H114     1.0000 0.83380  0.96340  0.52590  Biso   1.000  H
  H115     1.0000 0.33380  0.46340  0.97410  Biso   1.000  H
  H116     1.0000 0.16620  0.03660  0.47410  Biso   1.000  H
  C89      1.0000 0.73330  0.46330  0.09220  Biso   1.000  C
  C90      1.0000 0.76670  0.03670  0.59220  Biso   1.000  C
  C91      1.0000 0.26670  0.53670  0.90780  Biso   1.000  C
  C92      1.0000 0.23330  0.96330  0.40780  Biso   1.000  C
  H117     1.0000 0.66060  0.45390  0.11800  Biso   1.000  H
  H118     1.0000 0.83940  0.04610  0.61800  Biso   1.000  H
  H119     1.0000 0.33940  0.54610  0.88200  Biso   1.000  H
  H120     1.0000 0.16060  0.95390  0.38200  Biso   1.000  H
  C93      1.0000 0.83890  0.42830  0.10740  Biso   1.000  C
  C94      1.0000 0.66110  0.07170  0.60740  Biso   1.000  C
  C95      1.0000 0.16110  0.57170  0.89260  Biso   1.000  C
  C96      1.0000 0.33890  0.92830  0.39260  Biso   1.000  C
  H121     1.0000 0.83730  0.39450  0.14410  Biso   1.000  H
  H122     1.0000 0.66270  0.10550  0.64410  Biso   1.000  H
  H123     1.0000 0.16270  0.60550  0.85590  Biso   1.000  H
  H124     1.0000 0.33730  0.89450  0.35590  Biso   1.000  H
  N53      1.0000 0.94476  0.44146  0.07093  Biso   1.000  N
  N54      1.0000 0.55524  0.05854  0.57093  Biso   1.000  N
  N55      1.0000 0.05524  0.55854  0.92907  Biso   1.000  N
  N56      1.0000 0.44476  0.94146  0.42907  Biso   1.000  N
  O17      1.0000 0.27751  0.48991  0.13285  Biso   1.000  O
  O18      1.0000 0.22249  0.01009  0.63285  Biso   1.000  O
  O19      1.0000 0.72249  0.51009  0.86715  Biso   1.000  O
  O20      1.0000 0.77751  0.98991  0.36715  Biso   1.000  O
  O21      1.0000 0.47970  0.50870  0.19100  Biso   1.000  O
  O22      1.0000 0.02030  0.99130  0.69100  Biso   1.000  O
  O23      1.0000 0.52030  0.49130  0.80900  Biso   1.000  O
  O24      1.0000 0.97970  0.00870  0.30900  Biso   1.000  O
