data_image0
_cell_length_a       6.5279
_cell_length_b       16.074
_cell_length_c       20.005
_cell_angle_alpha    103.42
_cell_angle_beta     90
_cell_angle_gamma    90

_symmetry_space_group_name_H-M    "P 1"
_symmetry_int_tables_number       1

loop_
  _symmetry_equiv_pos_as_xyz
  'x, y, z'

loop_
  _atom_site_label
  _atom_site_occupancy
  _atom_site_fract_x
  _atom_site_fract_y
  _atom_site_fract_z
  _atom_site_thermal_displace_type
  _atom_site_B_iso_or_equiv
  _atom_site_type_symbol
  Hg1      1.0000 0.02773  0.81195  0.90810  Biso   1.000  Hg
  Hg2      1.0000 0.52773  0.31195  0.90810  Biso   1.000  Hg
  Hg3      1.0000 0.97227  0.81195  0.40810  Biso   1.000  Hg
  Hg4      1.0000 0.47227  0.31195  0.40810  Biso   1.000  Hg
  Hg5      1.0000 0.97227  0.18805  0.09190  Biso   1.000  Hg
  Hg6      1.0000 0.47227  0.68805  0.09190  Biso   1.000  Hg
  Hg7      1.0000 0.02773  0.18805  0.59190  Biso   1.000  Hg
  Hg8      1.0000 0.52773  0.68805  0.59190  Biso   1.000  Hg
  Hg9      1.0000 0.74304  0.80304  0.11069  Biso   1.000  Hg
  Hg10     1.0000 0.24304  0.30304  0.11069  Biso   1.000  Hg
  Hg11     1.0000 0.25696  0.80304  0.61069  Biso   1.000  Hg
  Hg12     1.0000 0.75696  0.30304  0.61069  Biso   1.000  Hg
  Hg13     1.0000 0.25696  0.19696  0.88931  Biso   1.000  Hg
  Hg14     1.0000 0.75696  0.69696  0.88931  Biso   1.000  Hg
  Hg15     1.0000 0.74304  0.19696  0.38931  Biso   1.000  Hg
  Hg16     1.0000 0.24304  0.69696  0.38931  Biso   1.000  Hg
  O1       1.0000 0.25880  0.89810  0.98520  Biso   1.000  O
  O2       1.0000 0.75880  0.39810  0.98520  Biso   1.000  O
  O3       1.0000 0.74120  0.89810  0.48520  Biso   1.000  O
  O4       1.0000 0.24120  0.39810  0.48520  Biso   1.000  O
  O5       1.0000 0.74120  0.10190  0.01480  Biso   1.000  O
  O6       1.0000 0.24120  0.60190  0.01480  Biso   1.000  O
  O7       1.0000 0.25880  0.10190  0.51480  Biso   1.000  O
  O8       1.0000 0.75880  0.60190  0.51480  Biso   1.000  O
  O9       1.0000 0.31650  0.84340  0.83820  Biso   1.000  O
  O10      1.0000 0.81650  0.34340  0.83820  Biso   1.000  O
  O11      1.0000 0.68350  0.84340  0.33820  Biso   1.000  O
  O12      1.0000 0.18350  0.34340  0.33820  Biso   1.000  O
  O13      1.0000 0.68350  0.15660  0.16180  Biso   1.000  O
  O14      1.0000 0.18350  0.65660  0.16180  Biso   1.000  O
  O15      1.0000 0.31650  0.15660  0.66180  Biso   1.000  O
  O16      1.0000 0.81650  0.65660  0.66180  Biso   1.000  O
  O17      1.0000 0.58070  0.88810  0.01190  Biso   1.000  O
  O18      1.0000 0.08070  0.38810  0.01190  Biso   1.000  O
  O19      1.0000 0.41930  0.88810  0.51190  Biso   1.000  O
  O20      1.0000 0.91930  0.38810  0.51190  Biso   1.000  O
  O21      1.0000 0.41930  0.11190  0.98810  Biso   1.000  O
  O22      1.0000 0.91930  0.61190  0.98810  Biso   1.000  O
  O23      1.0000 0.58070  0.11190  0.48810  Biso   1.000  O
  O24      1.0000 0.08070  0.61190  0.48810  Biso   1.000  O
  O25      1.0000 0.11950  0.80510  0.74900  Biso   1.000  O
  O26      1.0000 0.61950  0.30510  0.74900  Biso   1.000  O
  O27      1.0000 0.88050  0.80510  0.24900  Biso   1.000  O
  O28      1.0000 0.38050  0.30510  0.24900  Biso   1.000  O
  O29      1.0000 0.88050  0.19490  0.25100  Biso   1.000  O
  O30      1.0000 0.38050  0.69490  0.25100  Biso   1.000  O
  O31      1.0000 0.11950  0.19490  0.75100  Biso   1.000  O
  O32      1.0000 0.61950  0.69490  0.75100  Biso   1.000  O
  O33      1.0000 0.41670  0.77600  0.95400  Biso   1.000  O
  O34      1.0000 0.91670  0.27600  0.95400  Biso   1.000  O
  O35      1.0000 0.58330  0.77600  0.45400  Biso   1.000  O
  O36      1.0000 0.08330  0.27600  0.45400  Biso   1.000  O
  O37      1.0000 0.58330  0.22400  0.04600  Biso   1.000  O
  O38      1.0000 0.08330  0.72400  0.04600  Biso   1.000  O
  O39      1.0000 0.41670  0.22400  0.54600  Biso   1.000  O
  O40      1.0000 0.91670  0.72400  0.54600  Biso   1.000  O
  O41      1.0000 0.37160  0.88970  0.74660  Biso   1.000  O
  O42      1.0000 0.87160  0.38970  0.74660  Biso   1.000  O
  O43      1.0000 0.62840  0.88970  0.24660  Biso   1.000  O
  O44      1.0000 0.12840  0.38970  0.24660  Biso   1.000  O
  O45      1.0000 0.62840  0.11030  0.25340  Biso   1.000  O
  O46      1.0000 0.12840  0.61030  0.25340  Biso   1.000  O
  O47      1.0000 0.37160  0.11030  0.75340  Biso   1.000  O
  O48      1.0000 0.87160  0.61030  0.75340  Biso   1.000  O
  N1       1.0000 0.02980  0.09260  0.87710  Biso   1.000  N
  N2       1.0000 0.52980  0.59260  0.87710  Biso   1.000  N
  N3       1.0000 0.97020  0.09260  0.37710  Biso   1.000  N
  N4       1.0000 0.47020  0.59260  0.37710  Biso   1.000  N
  N5       1.0000 0.97020  0.90740  0.12290  Biso   1.000  N
  N6       1.0000 0.47020  0.40740  0.12290  Biso   1.000  N
  N7       1.0000 0.02980  0.90740  0.62290  Biso   1.000  N
  N8       1.0000 0.52980  0.40740  0.62290  Biso   1.000  N
  N9       1.0000 0.26750  0.84600  0.77740  Biso   1.000  N
  N10      1.0000 0.76750  0.34600  0.77740  Biso   1.000  N
  N11      1.0000 0.73250  0.84600  0.27740  Biso   1.000  N
  N12      1.0000 0.23250  0.34600  0.27740  Biso   1.000  N
  N13      1.0000 0.73250  0.15400  0.22260  Biso   1.000  N
  N14      1.0000 0.23250  0.65400  0.22260  Biso   1.000  N
  N15      1.0000 0.26750  0.15400  0.72260  Biso   1.000  N
  N16      1.0000 0.76750  0.65400  0.72260  Biso   1.000  N
  N17      1.0000 0.42190  0.85330  0.98400  Biso   1.000  N
  N18      1.0000 0.92190  0.35330  0.98400  Biso   1.000  N
  N19      1.0000 0.57810  0.85330  0.48400  Biso   1.000  N
  N20      1.0000 0.07810  0.35330  0.48400  Biso   1.000  N
  N21      1.0000 0.57810  0.14670  0.01600  Biso   1.000  N
  N22      1.0000 0.07810  0.64670  0.01600  Biso   1.000  N
  N23      1.0000 0.42190  0.14670  0.51600  Biso   1.000  N
  N24      1.0000 0.92190  0.64670  0.51600  Biso   1.000  N
  N25      1.0000 0.93270  0.95520  0.89130  Biso   1.000  N
  N26      1.0000 0.43270  0.45520  0.89130  Biso   1.000  N
  N27      1.0000 0.06730  0.95520  0.39130  Biso   1.000  N
  N28      1.0000 0.56730  0.45520  0.39130  Biso   1.000  N
  N29      1.0000 0.06730  0.04480  0.10870  Biso   1.000  N
  N30      1.0000 0.56730  0.54480  0.10870  Biso   1.000  N
  N31      1.0000 0.93270  0.04480  0.60870  Biso   1.000  N
  N32      1.0000 0.43270  0.54480  0.60870  Biso   1.000  N
  C1       1.0000 0.75500  0.96170  0.86240  Biso   1.000  C
  C2       1.0000 0.25500  0.46170  0.86240  Biso   1.000  C
  C3       1.0000 0.24500  0.96170  0.36240  Biso   1.000  C
  C4       1.0000 0.74500  0.46170  0.36240  Biso   1.000  C
  C5       1.0000 0.24500  0.03830  0.13760  Biso   1.000  C
  C6       1.0000 0.74500  0.53830  0.13760  Biso   1.000  C
  C7       1.0000 0.75500  0.03830  0.63760  Biso   1.000  C
  C8       1.0000 0.25500  0.53830  0.63760  Biso   1.000  C
  C9       1.0000 0.06730  0.02010  0.89910  Biso   1.000  C
  C10      1.0000 0.56730  0.52010  0.89910  Biso   1.000  C
  C11      1.0000 0.93270  0.02010  0.39910  Biso   1.000  C
  C12      1.0000 0.43270  0.52010  0.39910  Biso   1.000  C
  C13      1.0000 0.93270  0.97990  0.10090  Biso   1.000  C
  C14      1.0000 0.43270  0.47990  0.10090  Biso   1.000  C
  C15      1.0000 0.06730  0.97990  0.60090  Biso   1.000  C
  C16      1.0000 0.56730  0.47990  0.60090  Biso   1.000  C
  C17      1.0000 0.84830  0.10150  0.84570  Biso   1.000  C
  C18      1.0000 0.34830  0.60150  0.84570  Biso   1.000  C
  C19      1.0000 0.15170  0.10150  0.34570  Biso   1.000  C
  C20      1.0000 0.65170  0.60150  0.34570  Biso   1.000  C
  C21      1.0000 0.15170  0.89850  0.15430  Biso   1.000  C
  C22      1.0000 0.65170  0.39850  0.15430  Biso   1.000  C
  C23      1.0000 0.84830  0.89850  0.65430  Biso   1.000  C
  C24      1.0000 0.34830  0.39850  0.65430  Biso   1.000  C
  C25      1.0000 0.70100  0.03550  0.83820  Biso   1.000  C
  C26      1.0000 0.20100  0.53550  0.83820  Biso   1.000  C
  C27      1.0000 0.29900  0.03550  0.33820  Biso   1.000  C
  C28      1.0000 0.79900  0.53550  0.33820  Biso   1.000  C
  C29      1.0000 0.29900  0.96450  0.16180  Biso   1.000  C
  C30      1.0000 0.79900  0.46450  0.16180  Biso   1.000  C
  C31      1.0000 0.70100  0.96450  0.66180  Biso   1.000  C
  C32      1.0000 0.20100  0.46450  0.66180  Biso   1.000  C
