data_image0
_cell_length_a       10.2729
_cell_length_b       11.2543
_cell_length_c       12.2015
_cell_angle_alpha    80.366
_cell_angle_beta     69.307
_cell_angle_gamma    63.188

_symmetry_space_group_name_H-M    "P 1"
_symmetry_int_tables_number       1

loop_
  _symmetry_equiv_pos_as_xyz
  'x, y, z'

loop_
  _atom_site_label
  _atom_site_occupancy
  _atom_site_fract_x
  _atom_site_fract_y
  _atom_site_fract_z
  _atom_site_thermal_displace_type
  _atom_site_B_iso_or_equiv
  _atom_site_type_symbol
  Mo1      1.0000 0.23808  0.19689  0.50254  Biso   1.000  Mo
  Mo2      1.0000 0.76192  0.80311  0.49746  Biso   1.000  Mo
  Mo3      1.0000 0.12073  0.09789  0.26772  Biso   1.000  Mo
  Mo4      1.0000 0.87927  0.90211  0.73228  Biso   1.000  Mo
  Mo5      1.0000 0.03046  0.84798  0.27310  Biso   1.000  Mo
  Mo6      1.0000 0.96954  0.15202  0.72690  Biso   1.000  Mo
  Mo7      1.0000 0.18509  0.92545  0.50105  Biso   1.000  Mo
  Mo8      1.0000 0.81491  0.07455  0.49895  Biso   1.000  Mo
  Cu1      1.0000 0.50401  0.93464  0.30088  Biso   1.000  Cu
  Cu2      1.0000 0.49599  0.06536  0.69912  Biso   1.000  Cu
  Cu3      1.0000 0.50000  0.00000  0.00000  Biso   1.000  Cu
  O1       1.0000 0.43100  0.06040  0.41940  Biso   1.000  O
  O2       1.0000 0.56900  0.93960  0.58060  Biso   1.000  O
  O3       1.0000 0.15760  0.11140  0.40690  Biso   1.000  O
  O4       1.0000 0.84240  0.88860  0.59310  Biso   1.000  O
  O5       1.0000 0.19950  0.02020  0.60240  Biso   1.000  O
  O6       1.0000 0.80050  0.97980  0.39760  Biso   1.000  O
  O7       1.0000 0.30790  0.21360  0.60570  Biso   1.000  O
  O8       1.0000 0.69210  0.78640  0.39430  Biso   1.000  O
  O9       1.0000 0.22200  0.33260  0.41050  Biso   1.000  O
  O10      1.0000 0.77800  0.66740  0.58950  Biso   1.000  O
  O11      1.0000 0.31180  0.01730  0.18230  Biso   1.000  O
  O12      1.0000 0.68820  0.98270  0.81770  Biso   1.000  O
  O13      1.0000 0.07040  0.94360  0.39810  Biso   1.000  O
  O14      1.0000 0.92960  0.05640  0.60190  Biso   1.000  O
  O15      1.0000 0.03070  0.02090  0.20750  Biso   1.000  O
  O16      1.0000 0.96930  0.97910  0.79250  Biso   1.000  O
  O17      1.0000 0.06120  0.25580  0.21250  Biso   1.000  O
  O18      1.0000 0.93880  0.74420  0.78750  Biso   1.000  O
  O19      1.0000 0.97930  0.73580  0.40020  Biso   1.000  O
  O20      1.0000 0.02070  0.26420  0.59980  Biso   1.000  O
  O21      1.0000 0.94430  0.83410  0.18210  Biso   1.000  O
  O22      1.0000 0.05570  0.16590  0.81790  Biso   1.000  O
  O23      1.0000 0.22180  0.74490  0.21600  Biso   1.000  O
  O24      1.0000 0.77820  0.25510  0.78400  Biso   1.000  O
  O25      1.0000 0.37470  0.84360  0.41040  Biso   1.000  O
  O26      1.0000 0.62530  0.15640  0.58960  Biso   1.000  O
  O27      1.0000 0.14410  0.80470  0.59580  Biso   1.000  O
  O28      1.0000 0.85590  0.19530  0.40420  Biso   1.000  O
  N1       1.0000 0.58930  0.05140  0.18740  Biso   1.000  N
  N2       1.0000 0.41070  0.94860  0.81260  Biso   1.000  N
  N3       1.0000 0.59130  0.07410  0.07310  Biso   1.000  N
  N4       1.0000 0.40870  0.92590  0.92690  Biso   1.000  N
  N5       1.0000 0.71450  0.17240  0.10300  Biso   1.000  N
  N6       1.0000 0.28550  0.82760  0.89700  Biso   1.000  N
  N7       1.0000 0.60120  0.79570  0.18110  Biso   1.000  N
  N8       1.0000 0.39880  0.20430  0.81890  Biso   1.000  N
  N9       1.0000 0.60910  0.81810  0.06400  Biso   1.000  N
  N10      1.0000 0.39090  0.18190  0.93600  Biso   1.000  N
  N11      1.0000 0.73270  0.60520  0.09250  Biso   1.000  N
  N12      1.0000 0.26730  0.39480  0.90750  Biso   1.000  N
  C1       1.0000 0.66290  0.11190  0.20510  Biso   1.000  C
  C2       1.0000 0.33710  0.88810  0.79490  Biso   1.000  C
  H1       1.0000 0.67790  0.11360  0.27640  Biso   1.000  H
  H2       1.0000 0.32210  0.88640  0.72360  Biso   1.000  H
  C3       1.0000 0.66680  0.14680  0.02470  Biso   1.000  C
  C4       1.0000 0.33320  0.85320  0.97530  Biso   1.000  C
  H3       1.0000 0.68500  0.17660  0.94640  Biso   1.000  H
  H4       1.0000 0.31500  0.82340  0.05360  Biso   1.000  H
  C5       1.0000 0.67600  0.66800  0.19440  Biso   1.000  C
  C6       1.0000 0.32400  0.33200  0.80560  Biso   1.000  C
  H5       1.0000 0.68860  0.62580  0.26570  Biso   1.000  H
  H6       1.0000 0.31140  0.37420  0.73430  Biso   1.000  H
  C7       1.0000 0.68860  0.70210  0.01400  Biso   1.000  C
  C8       1.0000 0.31140  0.29790  0.98600  Biso   1.000  C
  H7       1.0000 0.71200  0.68780  0.93420  Biso   1.000  H
  H8       1.0000 0.28800  0.31220  0.06580  Biso   1.000  H
  C9       1.0000 0.80920  0.24610  0.08320  Biso   1.000  C
  C10      1.0000 0.19080  0.75390  0.91680  Biso   1.000  C
  H9       1.0000 0.88440  0.22670  0.00450  Biso   1.000  H
  H10      1.0000 0.11560  0.77330  0.99550  Biso   1.000  H
  H11      1.0000 0.86590  0.21530  0.13990  Biso   1.000  H
  H12      1.0000 0.13410  0.78470  0.86010  Biso   1.000  H
  C11      1.0000 0.71370  0.39410  0.09510  Biso   1.000  C
  C12      1.0000 0.28630  0.60590  0.90490  Biso   1.000  C
  H13      1.0000 0.63980  0.41510  0.17410  Biso   1.000  H
  H14      1.0000 0.36020  0.58490  0.82590  Biso   1.000  H
  H15      1.0000 0.65640  0.42630  0.03870  Biso   1.000  H
  H16      1.0000 0.34360  0.57370  0.96130  Biso   1.000  H
  C13      1.0000 0.82080  0.46120  0.07170  Biso   1.000  C
  C14      1.0000 0.17920  0.53880  0.92830  Biso   1.000  C
  H17      1.0000 0.88500  0.42200  0.12320  Biso   1.000  H
  H18      1.0000 0.11500  0.57800  0.87680  Biso   1.000  H
  H19      1.0000 0.88870  0.44570  0.99040  Biso   1.000  H
  H20      1.0000 0.11130  0.55430  0.00960  Biso   1.000  H
  O29      1.0000 0.99110  0.54720  0.22480  Biso   1.000  O
  O30      1.0000 0.00890  0.45280  0.77520  Biso   1.000  O
  H21      1.0000 0.08670  0.51710  0.21460  Biso   1.000  H
  H22      1.0000 0.91330  0.48290  0.78540  Biso   1.000  H
  H23      1.0000 0.95020  0.51660  0.28930  Biso   1.000  H
  H24      1.0000 0.04980  0.48340  0.71070  Biso   1.000  H
  O31      1.0000 0.31730  0.44370  0.18840  Biso   1.000  O
  O32      1.0000 0.68270  0.55630  0.81160  Biso   1.000  O
  H25      1.0000 0.30690  0.51370  0.21500  Biso   1.000  H
  H26      1.0000 0.69310  0.48630  0.78500  Biso   1.000  H
  H27      1.0000 0.31710  0.38690  0.24360  Biso   1.000  H
  H28      1.0000 0.68290  0.61310  0.75640  Biso   1.000  H
  O33      1.0000 0.14900  0.55870  0.55640  Biso   1.000  O
  O34      1.0000 0.85100  0.44130  0.44360  Biso   1.000  O
  H29      1.0000 0.17850  0.48580  0.52380  Biso   1.000  H
  H30      1.0000 0.82150  0.51420  0.47620  Biso   1.000  H
  H31      1.0000 0.09640  0.62130  0.51890  Biso   1.000  H
  H32      1.0000 0.90360  0.37870  0.48110  Biso   1.000  H
  O35      1.0000 0.41600  0.55480  0.33380  Biso   1.000  O
  O36      1.0000 0.58400  0.44520  0.66620  Biso   1.000  O
  O37      1.0000 0.44400  0.44660  0.53890  Biso   1.000  O
  O38      1.0000 0.55600  0.55340  0.46110  Biso   1.000  O
  O39      1.0000 0.47500  0.39300  0.43900  Biso   1.000  O
  O40      1.0000 0.52500  0.60700  0.56100  Biso   1.000  O
