data_image0
_cell_length_a       7.475
_cell_length_b       10.717
_cell_length_c       18.878
_cell_angle_alpha    90
_cell_angle_beta     90
_cell_angle_gamma    106.99

_symmetry_space_group_name_H-M    "P 1"
_symmetry_int_tables_number       1

loop_
  _symmetry_equiv_pos_as_xyz
  'x, y, z'

loop_
  _atom_site_label
  _atom_site_occupancy
  _atom_site_fract_x
  _atom_site_fract_y
  _atom_site_fract_z
  _atom_site_thermal_displace_type
  _atom_site_B_iso_or_equiv
  _atom_site_type_symbol
  Cu1      1.0000 0.82091  0.40766  0.53361  Biso   1.000  Cu
  Cu2      1.0000 0.17909  0.09234  0.03361  Biso   1.000  Cu
  Cu3      1.0000 0.17909  0.59234  0.46639  Biso   1.000  Cu
  Cu4      1.0000 0.82091  0.90766  0.96639  Biso   1.000  Cu
  Cl1      1.0000 0.86630  0.09590  0.04211  Biso   1.000  Cl
  Cl2      1.0000 0.13370  0.40410  0.54211  Biso   1.000  Cl
  Cl3      1.0000 0.13370  0.90410  0.95789  Biso   1.000  Cl
  Cl4      1.0000 0.86630  0.59590  0.45789  Biso   1.000  Cl
  S1       1.0000 0.63770  0.22630  0.47794  Biso   1.000  S
  S2       1.0000 0.36230  0.27370  0.97794  Biso   1.000  S
  S3       1.0000 0.36230  0.77370  0.52206  Biso   1.000  S
  S4       1.0000 0.63770  0.72630  0.02206  Biso   1.000  S
  S5       1.0000 0.27040  0.04730  0.14449  Biso   1.000  S
  S6       1.0000 0.72960  0.45270  0.64449  Biso   1.000  S
  S7       1.0000 0.72960  0.95270  0.85551  Biso   1.000  S
  S8       1.0000 0.27040  0.54730  0.35551  Biso   1.000  S
  C1       1.0000 0.31790  0.16570  0.39500  Biso   1.000  C
  C2       1.0000 0.68210  0.33430  0.89500  Biso   1.000  C
  C3       1.0000 0.68210  0.83430  0.60500  Biso   1.000  C
  C4       1.0000 0.31790  0.66570  0.10500  Biso   1.000  C
  C5       1.0000 0.28670  0.18770  0.32410  Biso   1.000  C
  C6       1.0000 0.71330  0.31230  0.82410  Biso   1.000  C
  C7       1.0000 0.71330  0.81230  0.67590  Biso   1.000  C
  C8       1.0000 0.28670  0.68770  0.17590  Biso   1.000  C
  C9       1.0000 0.16950  0.09050  0.28190  Biso   1.000  C
  C10      1.0000 0.83050  0.40950  0.78190  Biso   1.000  C
  C11      1.0000 0.83050  0.90950  0.71810  Biso   1.000  C
  C12      1.0000 0.16950  0.59050  0.21810  Biso   1.000  C
  C13      1.0000 0.08510  0.97080  0.31260  Biso   1.000  C
  C14      1.0000 0.91490  0.52920  0.81260  Biso   1.000  C
  C15      1.0000 0.91490  0.02920  0.68740  Biso   1.000  C
  C16      1.0000 0.08510  0.47080  0.18740  Biso   1.000  C
  C17      1.0000 0.11060  0.94850  0.38310  Biso   1.000  C
  C18      1.0000 0.88940  0.55150  0.88310  Biso   1.000  C
  C19      1.0000 0.88940  0.05150  0.61690  Biso   1.000  C
  C20      1.0000 0.11060  0.44850  0.11690  Biso   1.000  C
  C21      1.0000 0.22820  0.04640  0.42400  Biso   1.000  C
  C22      1.0000 0.77180  0.45360  0.92400  Biso   1.000  C
  C23      1.0000 0.77180  0.95360  0.57600  Biso   1.000  C
  C24      1.0000 0.22820  0.54640  0.07600  Biso   1.000  C
  C25      1.0000 0.44680  0.27340  0.43850  Biso   1.000  C
  C26      1.0000 0.55320  0.22660  0.93850  Biso   1.000  C
  C27      1.0000 0.55320  0.72660  0.56150  Biso   1.000  C
  C28      1.0000 0.44680  0.77340  0.06150  Biso   1.000  C
  C29      1.0000 0.75300  0.17260  0.40460  Biso   1.000  C
  C30      1.0000 0.24700  0.32740  0.90460  Biso   1.000  C
  C31      1.0000 0.24700  0.82740  0.59540  Biso   1.000  C
  C32      1.0000 0.75300  0.67260  0.09540  Biso   1.000  C
  C33      1.0000 0.82100  0.27100  0.35700  Biso   1.000  C
  C34      1.0000 0.17900  0.22900  0.85700  Biso   1.000  C
  C35      1.0000 0.17900  0.72900  0.64300  Biso   1.000  C
  C36      1.0000 0.82100  0.77100  0.14300  Biso   1.000  C
  C37      1.0000 0.13810  0.11630  0.20620  Biso   1.000  C
  C38      1.0000 0.86190  0.38370  0.70620  Biso   1.000  C
  C39      1.0000 0.86190  0.88370  0.79380  Biso   1.000  C
  C40      1.0000 0.13810  0.61630  0.29380  Biso   1.000  C
  C41      1.0000 0.50840  0.13910  0.16740  Biso   1.000  C
  C42      1.0000 0.49160  0.36090  0.66740  Biso   1.000  C
  C43      1.0000 0.49160  0.86090  0.83260  Biso   1.000  C
  C44      1.0000 0.50840  0.63910  0.33260  Biso   1.000  C
  C45      1.0000 0.55800  0.28500  0.15600  Biso   1.000  C
  C46      1.0000 0.44200  0.21500  0.65600  Biso   1.000  C
  C47      1.0000 0.44200  0.71500  0.84400  Biso   1.000  C
  C48      1.0000 0.55800  0.78500  0.34400  Biso   1.000  C
  H1       1.0000 0.35530  0.27800  0.30760  Biso   1.000  H
  H2       1.0000 0.64470  0.22200  0.80760  Biso   1.000  H
  H3       1.0000 0.64470  0.72200  0.69240  Biso   1.000  H
  H4       1.0000 0.35530  0.77800  0.19240  Biso   1.000  H
  H5       1.0000 0.00760  0.90770  0.28780  Biso   1.000  H
  H6       1.0000 0.99240  0.59230  0.78780  Biso   1.000  H
  H7       1.0000 0.99240  0.09230  0.71220  Biso   1.000  H
  H8       1.0000 0.00760  0.40770  0.21220  Biso   1.000  H
  H9       1.0000 0.03980  0.86090  0.40070  Biso   1.000  H
  H10      1.0000 0.96020  0.63910  0.90070  Biso   1.000  H
  H11      1.0000 0.96020  0.13910  0.59930  Biso   1.000  H
  H12      1.0000 0.03980  0.36090  0.09930  Biso   1.000  H
  H13      1.0000 0.23660  0.02590  0.47240  Biso   1.000  H
  H14      1.0000 0.76340  0.47410  0.97240  Biso   1.000  H
  H15      1.0000 0.76340  0.97410  0.52760  Biso   1.000  H
  H16      1.0000 0.23660  0.52590  0.02760  Biso   1.000  H
  H17      1.0000 0.50630  0.35790  0.40380  Biso   1.000  H
  H18      1.0000 0.49370  0.14210  0.90380  Biso   1.000  H
  H19      1.0000 0.49370  0.64210  0.59620  Biso   1.000  H
  H20      1.0000 0.50630  0.85790  0.09620  Biso   1.000  H
  H21      1.0000 0.36580  0.30090  0.48100  Biso   1.000  H
  H22      1.0000 0.63420  0.19910  0.98100  Biso   1.000  H
  H23      1.0000 0.63420  0.69910  0.51900  Biso   1.000  H
  H24      1.0000 0.36580  0.80090  0.01900  Biso   1.000  H
  H25      1.0000 0.65380  0.09060  0.37660  Biso   1.000  H
  H26      1.0000 0.34620  0.40940  0.87660  Biso   1.000  H
  H27      1.0000 0.34620  0.90940  0.62340  Biso   1.000  H
  H28      1.0000 0.65380  0.59060  0.12340  Biso   1.000  H
  H29      1.0000 0.87160  0.14020  0.42400  Biso   1.000  H
  H30      1.0000 0.12840  0.35980  0.92400  Biso   1.000  H
  H31      1.0000 0.12840  0.85980  0.57600  Biso   1.000  H
  H32      1.0000 0.87160  0.64020  0.07600  Biso   1.000  H
  H33      1.0000 0.88010  0.23580  0.31040  Biso   1.000  H
  H34      1.0000 0.11990  0.26420  0.81040  Biso   1.000  H
  H35      1.0000 0.11990  0.76420  0.68960  Biso   1.000  H
  H36      1.0000 0.88010  0.73580  0.18960  Biso   1.000  H
  H37      1.0000 0.93060  0.35060  0.38230  Biso   1.000  H
  H38      1.0000 0.06940  0.14940  0.88230  Biso   1.000  H
  H39      1.0000 0.06940  0.64940  0.61770  Biso   1.000  H
  H40      1.0000 0.93060  0.85060  0.11770  Biso   1.000  H
  H41      1.0000 0.70620  0.30990  0.33950  Biso   1.000  H
  H42      1.0000 0.29380  0.19010  0.83950  Biso   1.000  H
  H43      1.0000 0.29380  0.69010  0.66050  Biso   1.000  H
  H44      1.0000 0.70620  0.80990  0.16050  Biso   1.000  H
  H45      1.0000 0.00000  0.07240  0.19470  Biso   1.000  H
  H46      1.0000 0.00000  0.42760  0.69470  Biso   1.000  H
  H47      1.0000 1.00000  0.92760  0.80530  Biso   1.000  H
  H48      1.0000 0.00000  0.57240  0.30530  Biso   1.000  H
  H49      1.0000 0.16610  0.22080  0.18880  Biso   1.000  H
  H50      1.0000 0.83390  0.27920  0.68880  Biso   1.000  H
  H51      1.0000 0.83390  0.77920  0.81120  Biso   1.000  H
  H52      1.0000 0.16610  0.72080  0.31120  Biso   1.000  H
  H53      1.0000 0.60490  0.10310  0.13430  Biso   1.000  H
  H54      1.0000 0.39510  0.39690  0.63430  Biso   1.000  H
  H55      1.0000 0.39510  0.89690  0.86570  Biso   1.000  H
  H56      1.0000 0.60490  0.60310  0.36570  Biso   1.000  H
  H57      1.0000 0.53230  0.12210  0.22330  Biso   1.000  H
  H58      1.0000 0.46770  0.37790  0.72330  Biso   1.000  H
  H59      1.0000 0.46770  0.87790  0.77670  Biso   1.000  H
  H60      1.0000 0.53230  0.62210  0.27670  Biso   1.000  H
  H61      1.0000 0.70470  0.33320  0.16980  Biso   1.000  H
  H62      1.0000 0.29530  0.16680  0.66980  Biso   1.000  H
  H63      1.0000 0.29530  0.66680  0.83020  Biso   1.000  H
  H64      1.0000 0.70470  0.83320  0.33020  Biso   1.000  H
  H65      1.0000 0.46650  0.32690  0.18820  Biso   1.000  H
  H66      1.0000 0.53350  0.17310  0.68820  Biso   1.000  H
  H67      1.0000 0.53350  0.67310  0.81180  Biso   1.000  H
  H68      1.0000 0.46650  0.82690  0.31180  Biso   1.000  H
  H69      1.0000 0.53740  0.30760  0.09900  Biso   1.000  H
  H70      1.0000 0.46260  0.19240  0.59900  Biso   1.000  H
  H71      1.0000 0.46260  0.69240  0.90100  Biso   1.000  H
  H72      1.0000 0.53740  0.80760  0.40100  Biso   1.000  H
