data_image0
_cell_length_a       8.63
_cell_length_b       10.88
_cell_length_c       26.77
_cell_angle_alpha    90
_cell_angle_beta     99.2
_cell_angle_gamma    90

_symmetry_space_group_name_H-M    "P 1"
_symmetry_int_tables_number       1

loop_
  _symmetry_equiv_pos_as_xyz
  'x, y, z'

loop_
  _atom_site_label
  _atom_site_occupancy
  _atom_site_fract_x
  _atom_site_fract_y
  _atom_site_fract_z
  _atom_site_thermal_displace_type
  _atom_site_B_iso_or_equiv
  _atom_site_type_symbol
  O1       1.0000 0.92800  0.36200  0.67500  Biso   1.000  O
  O2       1.0000 0.07200  0.86200  0.82500  Biso   1.000  O
  O3       1.0000 0.07200  0.63800  0.32500  Biso   1.000  O
  O4       1.0000 0.92800  0.13800  0.17500  Biso   1.000  O
  Co1      1.0000 0.82410  0.66860  0.60340  Biso   1.000  Co
  Co2      1.0000 0.17590  0.16860  0.89660  Biso   1.000  Co
  Co3      1.0000 0.17590  0.33140  0.39660  Biso   1.000  Co
  Co4      1.0000 0.82410  0.83140  0.10340  Biso   1.000  Co
  Co5      1.0000 0.79340  0.01100  0.67670  Biso   1.000  Co
  Co6      1.0000 0.20660  0.51100  0.82330  Biso   1.000  Co
  Co7      1.0000 0.20660  0.98900  0.32330  Biso   1.000  Co
  Co8      1.0000 0.79340  0.48900  0.17670  Biso   1.000  Co
  Cl1      1.0000 0.80530  0.71480  0.52130  Biso   1.000  Cl
  Cl2      1.0000 0.19470  0.21480  0.97870  Biso   1.000  Cl
  Cl3      1.0000 0.19470  0.28520  0.47870  Biso   1.000  Cl
  Cl4      1.0000 0.80530  0.78520  0.02130  Biso   1.000  Cl
  Cl5      1.0000 0.69180  0.87160  0.61860  Biso   1.000  Cl
  Cl6      1.0000 0.30820  0.37160  0.88140  Biso   1.000  Cl
  Cl7      1.0000 0.30820  0.12840  0.38140  Biso   1.000  Cl
  Cl8      1.0000 0.69180  0.62840  0.11860  Biso   1.000  Cl
  Cl9      1.0000 0.78220  0.90310  0.74480  Biso   1.000  Cl
  Cl10     1.0000 0.21780  0.40310  0.75520  Biso   1.000  Cl
  Cl11     1.0000 0.21780  0.09690  0.25520  Biso   1.000  Cl
  Cl12     1.0000 0.78220  0.59690  0.24480  Biso   1.000  Cl
  Cl13     1.0000 0.64850  0.18150  0.66290  Biso   1.000  Cl
  Cl14     1.0000 0.35150  0.68150  0.83710  Biso   1.000  Cl
  Cl15     1.0000 0.35150  0.81850  0.33710  Biso   1.000  Cl
  Cl16     1.0000 0.64850  0.31850  0.16290  Biso   1.000  Cl
  O5       1.0000 0.92600  0.48800  0.59300  Biso   1.000  O
  O6       1.0000 0.07400  0.98800  0.90700  Biso   1.000  O
  O7       1.0000 0.07400  0.51200  0.40700  Biso   1.000  O
  O8       1.0000 0.92600  0.01200  0.09300  Biso   1.000  O
  N1       1.0000 0.84600  0.62700  0.67800  Biso   1.000  N
  N2       1.0000 0.15400  0.12700  0.82200  Biso   1.000  N
  N3       1.0000 0.15400  0.37300  0.32200  Biso   1.000  N
  N4       1.0000 0.84600  0.87300  0.17800  Biso   1.000  N
  N5       1.0000 0.72900  0.56400  0.74100  Biso   1.000  N
  N6       1.0000 0.27100  0.06400  0.75900  Biso   1.000  N
  N7       1.0000 0.27100  0.43600  0.25900  Biso   1.000  N
  N8       1.0000 0.72900  0.93600  0.24100  Biso   1.000  N
  N9       1.0000 0.98900  0.63000  0.75400  Biso   1.000  N
  N10      1.0000 0.01100  0.13000  0.74600  Biso   1.000  N
  N11      1.0000 0.01100  0.37000  0.24600  Biso   1.000  N
  N12      1.0000 0.98900  0.87000  0.25400  Biso   1.000  N
  N13      1.0000 0.04600  0.72600  0.63600  Biso   1.000  N
  N14      1.0000 0.95400  0.22600  0.86400  Biso   1.000  N
  N15      1.0000 0.95400  0.27400  0.36400  Biso   1.000  N
  N16      1.0000 0.04600  0.77400  0.13600  Biso   1.000  N
  N17      1.0000 0.61200  0.58100  0.61400  Biso   1.000  N
  N18      1.0000 0.38800  0.08100  0.88600  Biso   1.000  N
  N19      1.0000 0.38800  0.41900  0.38600  Biso   1.000  N
  N20      1.0000 0.61200  0.91900  0.11400  Biso   1.000  N
  N21      1.0000 0.98900  0.05600  0.65000  Biso   1.000  N
  N22      1.0000 0.01100  0.55600  0.85000  Biso   1.000  N
  N23      1.0000 0.01100  0.94400  0.35000  Biso   1.000  N
  N24      1.0000 0.98900  0.44400  0.15000  Biso   1.000  N
  C1       1.0000 0.97500  0.65400  0.70700  Biso   1.000  C
  C2       1.0000 0.02500  0.15400  0.79300  Biso   1.000  C
  C3       1.0000 0.02500  0.34600  0.29300  Biso   1.000  C
  C4       1.0000 0.97500  0.84600  0.20700  Biso   1.000  C
  C5       1.0000 0.72100  0.58600  0.69400  Biso   1.000  C
  C6       1.0000 0.27900  0.08600  0.80600  Biso   1.000  C
  C7       1.0000 0.27900  0.41400  0.30600  Biso   1.000  C
  C8       1.0000 0.72100  0.91400  0.19400  Biso   1.000  C
  C9       1.0000 0.86600  0.60400  0.77000  Biso   1.000  C
  C10      1.0000 0.13400  0.10400  0.73000  Biso   1.000  C
  C11      1.0000 0.13400  0.39600  0.23000  Biso   1.000  C
  C12      1.0000 0.86600  0.89600  0.27000  Biso   1.000  C
  C13      1.0000 0.09600  0.71100  0.68200  Biso   1.000  C
  C14      1.0000 0.90400  0.21100  0.81800  Biso   1.000  C
  C15      1.0000 0.90400  0.28900  0.31800  Biso   1.000  C
  C16      1.0000 0.09600  0.78900  0.18200  Biso   1.000  C
  C17      1.0000 0.24200  0.75000  0.71000  Biso   1.000  C
  C18      1.0000 0.75800  0.25000  0.79000  Biso   1.000  C
  C19      1.0000 0.75800  0.25000  0.29000  Biso   1.000  C
  C20      1.0000 0.24200  0.75000  0.21000  Biso   1.000  C
  C21      1.0000 0.34400  0.79200  0.68000  Biso   1.000  C
  C22      1.0000 0.65600  0.29200  0.82000  Biso   1.000  C
  C23      1.0000 0.65600  0.20800  0.32000  Biso   1.000  C
  C24      1.0000 0.34400  0.70800  0.18000  Biso   1.000  C
  C25      1.0000 0.30700  0.82000  0.62900  Biso   1.000  C
  C26      1.0000 0.69300  0.32000  0.87100  Biso   1.000  C
  C27      1.0000 0.69300  0.18000  0.37100  Biso   1.000  C
  C28      1.0000 0.30700  0.68000  0.12900  Biso   1.000  C
  C29      1.0000 0.15400  0.77600  0.61400  Biso   1.000  C
  C30      1.0000 0.84600  0.27600  0.88600  Biso   1.000  C
  C31      1.0000 0.84600  0.22400  0.38600  Biso   1.000  C
  C32      1.0000 0.15400  0.72400  0.11400  Biso   1.000  C
  C33      1.0000 0.58200  0.54900  0.65800  Biso   1.000  C
  C34      1.0000 0.41800  0.04900  0.84200  Biso   1.000  C
  C35      1.0000 0.41800  0.45100  0.34200  Biso   1.000  C
  C36      1.0000 0.58200  0.95100  0.15800  Biso   1.000  C
  C37      1.0000 0.46100  0.49700  0.67100  Biso   1.000  C
  C38      1.0000 0.53900  0.99700  0.82900  Biso   1.000  C
  C39      1.0000 0.53900  0.50300  0.32900  Biso   1.000  C
  C40      1.0000 0.46100  0.00300  0.17100  Biso   1.000  C
  C41      1.0000 0.33200  0.46200  0.63400  Biso   1.000  C
  C42      1.0000 0.66800  0.96200  0.86600  Biso   1.000  C
  C43      1.0000 0.66800  0.53800  0.36600  Biso   1.000  C
  C44      1.0000 0.33200  0.03800  0.13400  Biso   1.000  C
  C45      1.0000 0.36300  0.48900  0.58900  Biso   1.000  C
  C46      1.0000 0.63700  0.98900  0.91100  Biso   1.000  C
  C47      1.0000 0.63700  0.51100  0.41100  Biso   1.000  C
  C48      1.0000 0.36300  0.01100  0.08900  Biso   1.000  C
  C49      1.0000 0.49300  0.53800  0.58000  Biso   1.000  C
  C50      1.0000 0.50700  0.03800  0.92000  Biso   1.000  C
  C51      1.0000 0.50700  0.46200  0.42000  Biso   1.000  C
  C52      1.0000 0.49300  0.96200  0.08000  Biso   1.000  C
  C53      1.0000 0.13000  0.08700  0.67800  Biso   1.000  C
  C54      1.0000 0.87000  0.58700  0.82200  Biso   1.000  C
  C55      1.0000 0.87000  0.91300  0.32200  Biso   1.000  C
  C56      1.0000 0.13000  0.41300  0.17800  Biso   1.000  C
  C57      1.0000 0.26000  0.11900  0.66000  Biso   1.000  C
  C58      1.0000 0.74000  0.61900  0.84000  Biso   1.000  C
  C59      1.0000 0.74000  0.88100  0.34000  Biso   1.000  C
  C60      1.0000 0.26000  0.38100  0.16000  Biso   1.000  C
  C61      1.0000 0.24400  0.12700  0.61000  Biso   1.000  C
  C62      1.0000 0.75600  0.62700  0.89000  Biso   1.000  C
  C63      1.0000 0.75600  0.87300  0.39000  Biso   1.000  C
  C64      1.0000 0.24400  0.37300  0.11000  Biso   1.000  C
  C65      1.0000 0.10900  0.09500  0.57900  Biso   1.000  C
  C66      1.0000 0.89100  0.59500  0.92100  Biso   1.000  C
  C67      1.0000 0.89100  0.90500  0.42100  Biso   1.000  C
  C68      1.0000 0.10900  0.40500  0.07900  Biso   1.000  C
  C69      1.0000 0.98600  0.05500  0.60200  Biso   1.000  C
  C70      1.0000 0.01400  0.55500  0.89800  Biso   1.000  C
  C71      1.0000 0.01400  0.94500  0.39800  Biso   1.000  C
  C72      1.0000 0.98600  0.44500  0.10200  Biso   1.000  C
  H1       1.0000 0.26800  0.75600  0.74700  Biso   1.000  H
  H2       1.0000 0.73200  0.25600  0.75300  Biso   1.000  H
  H3       1.0000 0.73200  0.24400  0.25300  Biso   1.000  H
  H4       1.0000 0.26800  0.74400  0.24700  Biso   1.000  H
  H5       1.0000 0.46000  0.80600  0.69000  Biso   1.000  H
  H6       1.0000 0.54000  0.30600  0.81000  Biso   1.000  H
  H7       1.0000 0.54000  0.19400  0.31000  Biso   1.000  H
  H8       1.0000 0.46000  0.69400  0.19000  Biso   1.000  H
  H9       1.0000 0.36900  0.85200  0.60300  Biso   1.000  H
  H10      1.0000 0.63100  0.35200  0.89700  Biso   1.000  H
  H11      1.0000 0.63100  0.14800  0.39700  Biso   1.000  H
  H12      1.0000 0.36900  0.64800  0.10300  Biso   1.000  H
  H13      1.0000 0.06800  0.78200  0.58200  Biso   1.000  H
  H14      1.0000 0.93200  0.28200  0.91800  Biso   1.000  H
  H15      1.0000 0.93200  0.21800  0.41800  Biso   1.000  H
  H16      1.0000 0.06800  0.71800  0.08200  Biso   1.000  H
  H17      1.0000 0.46300  0.49600  0.70800  Biso   1.000  H
  H18      1.0000 0.53700  0.99600  0.79200  Biso   1.000  H
  H19      1.0000 0.53700  0.50400  0.29200  Biso   1.000  H
  H20      1.0000 0.46300  0.00400  0.20800  Biso   1.000  H
  H21      1.0000 0.23500  0.42000  0.64000  Biso   1.000  H
  H22      1.0000 0.76500  0.92000  0.86000  Biso   1.000  H
  H23      1.0000 0.76500  0.58000  0.36000  Biso   1.000  H
  H24      1.0000 0.23500  0.08000  0.14000  Biso   1.000  H
  H25      1.0000 0.28600  0.48400  0.55600  Biso   1.000  H
  H26      1.0000 0.71400  0.98400  0.94400  Biso   1.000  H
  H27      1.0000 0.71400  0.51600  0.44400  Biso   1.000  H
  H28      1.0000 0.28600  0.01600  0.05600  Biso   1.000  H
  H29      1.0000 0.51700  0.53100  0.54400  Biso   1.000  H
  H30      1.0000 0.48300  0.03100  0.95600  Biso   1.000  H
  H31      1.0000 0.48300  0.46900  0.45600  Biso   1.000  H
  H32      1.0000 0.51700  0.96900  0.04400  Biso   1.000  H
  H33      1.0000 0.36900  0.12700  0.68400  Biso   1.000  H
  H34      1.0000 0.63100  0.62700  0.81600  Biso   1.000  H
  H35      1.0000 0.63100  0.87300  0.31600  Biso   1.000  H
  H36      1.0000 0.36900  0.37300  0.18400  Biso   1.000  H
  H37      1.0000 0.32600  0.16200  0.59100  Biso   1.000  H
  H38      1.0000 0.67400  0.66200  0.90900  Biso   1.000  H
  H39      1.0000 0.67400  0.83800  0.40900  Biso   1.000  H
  H40      1.0000 0.32600  0.33800  0.09100  Biso   1.000  H
  H41      1.0000 0.08900  0.09600  0.54200  Biso   1.000  H
  H42      1.0000 0.91100  0.59600  0.95800  Biso   1.000  H
  H43      1.0000 0.91100  0.90400  0.45800  Biso   1.000  H
  H44      1.0000 0.08900  0.40400  0.04200  Biso   1.000  H
  H45      1.0000 0.88700  0.03100  0.58300  Biso   1.000  H
  H46      1.0000 0.11300  0.53100  0.91700  Biso   1.000  H
  H47      1.0000 0.11300  0.96900  0.41700  Biso   1.000  H
  H48      1.0000 0.88700  0.46900  0.08300  Biso   1.000  H
