data_image0
_cell_length_a       8.4187
_cell_length_b       9.4763
_cell_length_c       12.176
_cell_angle_alpha    71.668
_cell_angle_beta     88.005
_cell_angle_gamma    89.312

_symmetry_space_group_name_H-M    "P 1"
_symmetry_int_tables_number       1

loop_
  _symmetry_equiv_pos_as_xyz
  'x, y, z'

loop_
  _atom_site_label
  _atom_site_occupancy
  _atom_site_fract_x
  _atom_site_fract_y
  _atom_site_fract_z
  _atom_site_thermal_displace_type
  _atom_site_B_iso_or_equiv
  _atom_site_type_symbol
  Ni1      1.0000 0.50000  0.00000  0.00000  Biso   1.000  Ni
  Ni2      1.0000 0.00000  0.50000  0.50000  Biso   1.000  Ni
  V1       1.0000 0.31455  0.71473  0.28516  Biso   1.000  V
  V2       1.0000 0.68545  0.28527  0.71484  Biso   1.000  V
  C1       1.0000 0.05090  0.90510  0.89890  Biso   1.000  C
  C2       1.0000 0.94910  0.09490  0.10110  Biso   1.000  C
  H1       1.0000 0.96160  0.84450  0.91290  Biso   1.000  H
  H2       1.0000 0.03840  0.15550  0.08710  Biso   1.000  H
  C3       1.0000 0.07470  0.03320  0.80840  Biso   1.000  C
  C4       1.0000 0.92530  0.96680  0.19160  Biso   1.000  C
  H3       1.0000 0.00680  0.07690  0.74850  Biso   1.000  H
  H4       1.0000 0.99320  0.92310  0.25150  Biso   1.000  H
  C5       1.0000 0.22200  0.08270  0.82620  Biso   1.000  C
  C6       1.0000 0.77800  0.91730  0.17380  Biso   1.000  C
  H5       1.0000 0.27000  0.16900  0.77810  Biso   1.000  H
  H6       1.0000 0.73000  0.83100  0.22190  Biso   1.000  H
  C7       1.0000 0.31140  0.27840  0.18220  Biso   1.000  C
  C8       1.0000 0.68860  0.72160  0.81780  Biso   1.000  C
  H7       1.0000 0.27160  0.29150  0.25050  Biso   1.000  H
  H8       1.0000 0.72840  0.70850  0.74950  Biso   1.000  H
  C9       1.0000 0.32950  0.38560  0.07760  Biso   1.000  C
  C10      1.0000 0.67050  0.61440  0.92240  Biso   1.000  C
  H9       1.0000 0.30560  0.48620  0.06010  Biso   1.000  H
  H10      1.0000 0.69440  0.51380  0.93990  Biso   1.000  H
  C11      1.0000 0.39050  0.31350  0.00340  Biso   1.000  C
  C12      1.0000 0.60950  0.68650  0.99660  Biso   1.000  C
  H11      1.0000 0.41410  0.35960  0.92520  Biso   1.000  H
  H12      1.0000 0.58590  0.64040  0.07480  Biso   1.000  H
  C13      1.0000 0.35170  0.16760  0.52550  Biso   1.000  C
  C14      1.0000 0.64830  0.83240  0.47450  Biso   1.000  C
  H13      1.0000 0.45470  0.13290  0.54190  Biso   1.000  H
  H14      1.0000 0.54530  0.86710  0.45810  Biso   1.000  H
  C15      1.0000 0.23270  0.09630  0.49250  Biso   1.000  C
  C16      1.0000 0.76730  0.90370  0.50750  Biso   1.000  C
  H15      1.0000 0.23640  0.00360  0.48130  Biso   1.000  H
  H16      1.0000 0.76360  0.99640  0.51870  Biso   1.000  H
  C17      1.0000 0.10450  0.19200  0.47920  Biso   1.000  C
  C18      1.0000 0.89550  0.80800  0.52080  Biso   1.000  C
  H17      1.0000 0.00470  0.17190  0.45730  Biso   1.000  H
  H18      1.0000 0.99530  0.82810  0.54270  Biso   1.000  H
  C19      1.0000 0.13910  0.57530  0.80180  Biso   1.000  C
  C20      1.0000 0.86090  0.42470  0.19820  Biso   1.000  C
  H19      1.0000 0.11350  0.57040  0.87780  Biso   1.000  H
  H20      1.0000 0.88650  0.42960  0.12220  Biso   1.000  H
  C21      1.0000 0.26240  0.65060  0.73610  Biso   1.000  C
  C22      1.0000 0.73760  0.34940  0.26390  Biso   1.000  C
  H21      1.0000 0.33830  0.70690  0.75720  Biso   1.000  H
  H22      1.0000 0.66170  0.29310  0.24280  Biso   1.000  H
  C23      1.0000 0.25110  0.62540  0.63030  Biso   1.000  C
  C24      1.0000 0.74890  0.37460  0.36970  Biso   1.000  C
  H23      1.0000 0.32100  0.66340  0.56730  Biso   1.000  H
  H24      1.0000 0.67900  0.33660  0.43270  Biso   1.000  H
  N1       1.0000 0.28690  0.99210  0.92004  Biso   1.000  N
  N2       1.0000 0.71310  0.00790  0.07996  Biso   1.000  N
  N3       1.0000 0.17960  0.88340  0.96335  Biso   1.000  N
  N4       1.0000 0.82040  0.11660  0.03665  Biso   1.000  N
  H25      1.0000 0.19210  0.80920  0.02490  Biso   1.000  H
  H26      1.0000 0.80790  0.19080  0.97510  Biso   1.000  H
  N5       1.0000 0.41130  0.16910  0.05818  Biso   1.000  N
  N6       1.0000 0.58870  0.83090  0.94182  Biso   1.000  N
  N7       1.0000 0.36180  0.15020  0.16800  Biso   1.000  N
  N8       1.0000 0.63820  0.84980  0.83200  Biso   1.000  N
  H27      1.0000 0.36240  0.06630  0.22240  Biso   1.000  H
  H28      1.0000 0.63760  0.93370  0.77760  Biso   1.000  H
  N9       1.0000 0.14060  0.31540  0.50139  Biso   1.000  N
  N10      1.0000 0.85940  0.68460  0.49861  Biso   1.000  N
  N11      1.0000 0.29270  0.29710  0.52980  Biso   1.000  N
  N12      1.0000 0.70730  0.70290  0.47020  Biso   1.000  N
  H29      1.0000 0.34690  0.36160  0.54890  Biso   1.000  H
  H30      1.0000 0.65310  0.63840  0.45110  Biso   1.000  H
  N13      1.0000 0.12690  0.53990  0.63120  Biso   1.000  N
  N14      1.0000 0.87310  0.46010  0.36880  Biso   1.000  N
  N15      1.0000 0.06090  0.50960  0.73821  Biso   1.000  N
  N16      1.0000 0.93910  0.49040  0.26179  Biso   1.000  N
  H31      1.0000 0.97840  0.45460  0.76250  Biso   1.000  H
  H32      1.0000 0.02160  0.54540  0.23750  Biso   1.000  H
  O1       1.0000 0.45790  0.60750  0.34210  Biso   1.000  O
  O2       1.0000 0.54210  0.39250  0.65790  Biso   1.000  O
  O3       1.0000 0.14770  0.63730  0.37798  Biso   1.000  O
  O4       1.0000 0.85230  0.36270  0.62202  Biso   1.000  O
  F1       1.0000 0.32180  0.87155  0.34143  Biso   1.000  F
  F2       1.0000 0.67820  0.12845  0.65857  Biso   1.000  F
  F3       1.0000 0.21370  0.64843  0.17299  Biso   1.000  F
  F4       1.0000 0.78630  0.35157  0.82701  Biso   1.000  F
  F5       1.0000 0.40946  0.84987  0.14799  Biso   1.000  F
  F6       1.0000 0.59054  0.15013  0.85201  Biso   1.000  F
