data_image0
_cell_length_a       8.3524
_cell_length_b       9.3222
_cell_length_c       21.2995
_cell_angle_alpha    90
_cell_angle_beta     90
_cell_angle_gamma    92.787

_symmetry_space_group_name_H-M    "P 1"
_symmetry_int_tables_number       1

loop_
  _symmetry_equiv_pos_as_xyz
  'x, y, z'

loop_
  _atom_site_label
  _atom_site_occupancy
  _atom_site_fract_x
  _atom_site_fract_y
  _atom_site_fract_z
  _atom_site_thermal_displace_type
  _atom_site_B_iso_or_equiv
  _atom_site_type_symbol
  Cu1      1.0000 0.60516  0.02996  0.37919  Biso   1.000  Cu
  Cu2      1.0000 0.10516  0.02996  0.12081  Biso   1.000  Cu
  Cu3      1.0000 0.39484  0.97004  0.62081  Biso   1.000  Cu
  Cu4      1.0000 0.89484  0.97004  0.87919  Biso   1.000  Cu
  V1       1.0000 0.33807  0.28104  0.32015  Biso   1.000  V
  V2       1.0000 0.83807  0.28104  0.17985  Biso   1.000  V
  V3       1.0000 0.66193  0.71896  0.67985  Biso   1.000  V
  V4       1.0000 0.16193  0.71896  0.82015  Biso   1.000  V
  V5       1.0000 0.92987  0.24987  0.32703  Biso   1.000  V
  V6       1.0000 0.42987  0.24987  0.17297  Biso   1.000  V
  V7       1.0000 0.07013  0.75013  0.67297  Biso   1.000  V
  V8       1.0000 0.57013  0.75013  0.82703  Biso   1.000  V
  O1       1.0000 0.82430  0.09570  0.33308  Biso   1.000  O
  O2       1.0000 0.32430  0.09570  0.16692  Biso   1.000  O
  O3       1.0000 0.17570  0.90430  0.66692  Biso   1.000  O
  O4       1.0000 0.67570  0.90430  0.83308  Biso   1.000  O
  O5       1.0000 0.46070  0.15030  0.33932  Biso   1.000  O
  O6       1.0000 0.96070  0.15030  0.16068  Biso   1.000  O
  O7       1.0000 0.53930  0.84970  0.66068  Biso   1.000  O
  O8       1.0000 0.03930  0.84970  0.83932  Biso   1.000  O
  O9       1.0000 0.13750  0.20690  0.32422  Biso   1.000  O
  O10      1.0000 0.63750  0.20690  0.17578  Biso   1.000  O
  O11      1.0000 0.86250  0.79310  0.67578  Biso   1.000  O
  O12      1.0000 0.36250  0.79310  0.82422  Biso   1.000  O
  O13      1.0000 0.36170  0.41430  0.36851  Biso   1.000  O
  O14      1.0000 0.86170  0.41430  0.13149  Biso   1.000  O
  O15      1.0000 0.63830  0.58570  0.63149  Biso   1.000  O
  O16      1.0000 0.13830  0.58570  0.86851  Biso   1.000  O
  O17      1.0000 0.37720  0.34750  0.24269  Biso   1.000  O
  O18      1.0000 0.87720  0.34750  0.25731  Biso   1.000  O
  O19      1.0000 0.62280  0.65250  0.75731  Biso   1.000  O
  O20      1.0000 0.12280  0.65250  0.74269  Biso   1.000  O
  O21      1.0000 0.89610  0.34990  0.38780  Biso   1.000  O
  O22      1.0000 0.39610  0.34990  0.11220  Biso   1.000  O
  O23      1.0000 0.10390  0.65010  0.61220  Biso   1.000  O
  O24      1.0000 0.60390  0.65010  0.88780  Biso   1.000  O
  N1       1.0000 0.64060  0.13910  0.46137  Biso   1.000  N
  N2       1.0000 0.14060  0.13910  0.03863  Biso   1.000  N
  N3       1.0000 0.35940  0.86090  0.53863  Biso   1.000  N
  N4       1.0000 0.85940  0.86090  0.96137  Biso   1.000  N
  N5       1.0000 0.69630  0.88120  0.42940  Biso   1.000  N
  N6       1.0000 0.19630  0.88120  0.07060  Biso   1.000  N
  N7       1.0000 0.30370  0.11880  0.57060  Biso   1.000  N
  N8       1.0000 0.80370  0.11880  0.92940  Biso   1.000  N
  N9       1.0000 0.58130  0.86070  0.31876  Biso   1.000  N
  N10      1.0000 0.08130  0.86070  0.18124  Biso   1.000  N
  N11      1.0000 0.41870  0.13930  0.68124  Biso   1.000  N
  N12      1.0000 0.91870  0.13930  0.81876  Biso   1.000  N
  C1       1.0000 0.60550  0.27400  0.47210  Biso   1.000  C
  C2       1.0000 0.10550  0.27400  0.02790  Biso   1.000  C
  C3       1.0000 0.39450  0.72600  0.52790  Biso   1.000  C
  C4       1.0000 0.89450  0.72600  0.97210  Biso   1.000  C
  H1       1.0000 0.55710  0.32590  0.44070  Biso   1.000  H
  H2       1.0000 0.05710  0.32590  0.05930  Biso   1.000  H
  H3       1.0000 0.44290  0.67410  0.55930  Biso   1.000  H
  H4       1.0000 0.94290  0.67410  0.94070  Biso   1.000  H
  C5       1.0000 0.63980  0.33930  0.52940  Biso   1.000  C
  C6       1.0000 0.13980  0.33930  0.97060  Biso   1.000  C
  C7       1.0000 0.36020  0.66070  0.47060  Biso   1.000  C
  C8       1.0000 0.86020  0.66070  0.02940  Biso   1.000  C
  H5       1.0000 0.61460  0.43410  0.53630  Biso   1.000  H
  H6       1.0000 0.11460  0.43410  0.96370  Biso   1.000  H
  H7       1.0000 0.38540  0.56590  0.46370  Biso   1.000  H
  H8       1.0000 0.88540  0.56590  0.03630  Biso   1.000  H
  C9       1.0000 0.71140  0.26280  0.57600  Biso   1.000  C
  C10      1.0000 0.21140  0.26280  0.92400  Biso   1.000  C
  C11      1.0000 0.28860  0.73720  0.42400  Biso   1.000  C
  C12      1.0000 0.78860  0.73720  0.07600  Biso   1.000  C
  H9       1.0000 0.73390  0.30530  0.61480  Biso   1.000  H
  H10      1.0000 0.23390  0.30530  0.88520  Biso   1.000  H
  H11      1.0000 0.26610  0.69470  0.38520  Biso   1.000  H
  H12      1.0000 0.76610  0.69470  0.11480  Biso   1.000  H
  C13      1.0000 0.74980  0.12200  0.56495  Biso   1.000  C
  C14      1.0000 0.24980  0.12200  0.93505  Biso   1.000  C
  C15      1.0000 0.25020  0.87800  0.43505  Biso   1.000  C
  C16      1.0000 0.75020  0.87800  0.06495  Biso   1.000  C
  H13      1.0000 0.79790  0.06830  0.59580  Biso   1.000  H
  H14      1.0000 0.29790  0.06830  0.90420  Biso   1.000  H
  H15      1.0000 0.20210  0.93170  0.40420  Biso   1.000  H
  H16      1.0000 0.70210  0.93170  0.09580  Biso   1.000  H
  C17      1.0000 0.71440  0.06390  0.50633  Biso   1.000  C
  C18      1.0000 0.21440  0.06390  0.99367  Biso   1.000  C
  C19      1.0000 0.28560  0.93610  0.49367  Biso   1.000  C
  C20      1.0000 0.78560  0.93610  0.00633  Biso   1.000  C
  C21      1.0000 0.75220  0.91590  0.48740  Biso   1.000  C
  C22      1.0000 0.25220  0.91590  0.01260  Biso   1.000  C
  C23      1.0000 0.24780  0.08410  0.51260  Biso   1.000  C
  C24      1.0000 0.74780  0.08410  0.98740  Biso   1.000  C
  C25      1.0000 0.83210  0.81670  0.52210  Biso   1.000  C
  C26      1.0000 0.33210  0.81670  0.97790  Biso   1.000  C
  C27      1.0000 0.16790  0.18330  0.47790  Biso   1.000  C
  C28      1.0000 0.66790  0.18330  0.02210  Biso   1.000  C
  H17      1.0000 0.87010  0.83920  0.56210  Biso   1.000  H
  H18      1.0000 0.37010  0.83920  0.93790  Biso   1.000  H
  H19      1.0000 0.12990  0.16080  0.43790  Biso   1.000  H
  H20      1.0000 0.62990  0.16080  0.06210  Biso   1.000  H
  C29      1.0000 0.85480  0.68210  0.49600  Biso   1.000  C
  C30      1.0000 0.35480  0.68210  0.00400  Biso   1.000  C
  C31      1.0000 0.14520  0.31790  0.50400  Biso   1.000  C
  C32      1.0000 0.64520  0.31790  0.99600  Biso   1.000  C
  H21      1.0000 0.90940  0.61430  0.51850  Biso   1.000  H
  H22      1.0000 0.40940  0.61430  0.98150  Biso   1.000  H
  H23      1.0000 0.09060  0.38570  0.48150  Biso   1.000  H
  H24      1.0000 0.59060  0.38570  0.01850  Biso   1.000  H
  C33      1.0000 0.79570  0.64870  0.43610  Biso   1.000  C
  C34      1.0000 0.29570  0.64870  0.06390  Biso   1.000  C
  C35      1.0000 0.20430  0.35130  0.56390  Biso   1.000  C
  C36      1.0000 0.70430  0.35130  0.93610  Biso   1.000  C
  H25      1.0000 0.80910  0.55880  0.41860  Biso   1.000  H
  H26      1.0000 0.30910  0.55880  0.08140  Biso   1.000  H
  H27      1.0000 0.19090  0.44120  0.58140  Biso   1.000  H
  H28      1.0000 0.69090  0.44120  0.91860  Biso   1.000  H
  C37      1.0000 0.71690  0.75210  0.40367  Biso   1.000  C
  C38      1.0000 0.21690  0.75210  0.09633  Biso   1.000  C
  C39      1.0000 0.28310  0.24790  0.59633  Biso   1.000  C
  C40      1.0000 0.78310  0.24790  0.90367  Biso   1.000  C
  C41      1.0000 0.65030  0.74000  0.33924  Biso   1.000  C
  C42      1.0000 0.15030  0.74000  0.16076  Biso   1.000  C
  C43      1.0000 0.34970  0.26000  0.66076  Biso   1.000  C
  C44      1.0000 0.84970  0.26000  0.83924  Biso   1.000  C
  C45      1.0000 0.66410  0.62230  0.30040  Biso   1.000  C
  C46      1.0000 0.16410  0.62230  0.19960  Biso   1.000  C
  C47      1.0000 0.33590  0.37770  0.69960  Biso   1.000  C
  C48      1.0000 0.83590  0.37770  0.80040  Biso   1.000  C
  H29      1.0000 0.70930  0.53970  0.31530  Biso   1.000  H
  H30      1.0000 0.20930  0.53970  0.18470  Biso   1.000  H
  H31      1.0000 0.29070  0.46030  0.68470  Biso   1.000  H
  H32      1.0000 0.79070  0.46030  0.81530  Biso   1.000  H
  C49      1.0000 0.60970  0.62890  0.23900  Biso   1.000  C
  C50      1.0000 0.10970  0.62890  0.26100  Biso   1.000  C
  C51      1.0000 0.39030  0.37110  0.76100  Biso   1.000  C
  C52      1.0000 0.89030  0.37110  0.73900  Biso   1.000  C
  H33      1.0000 0.61910  0.55150  0.21190  Biso   1.000  H
  H34      1.0000 0.11910  0.55150  0.28810  Biso   1.000  H
  H35      1.0000 0.38090  0.44850  0.78810  Biso   1.000  H
  H36      1.0000 0.88090  0.44850  0.71190  Biso   1.000  H
  C53      1.0000 0.54080  0.75370  0.21880  Biso   1.000  C
  C54      1.0000 0.04080  0.75370  0.28120  Biso   1.000  C
  C55      1.0000 0.45920  0.24630  0.78120  Biso   1.000  C
  C56      1.0000 0.95920  0.24630  0.71880  Biso   1.000  C
  H37      1.0000 0.50300  0.76030  0.17780  Biso   1.000  H
  H38      1.0000 0.00300  0.76030  0.32220  Biso   1.000  H
  H39      1.0000 0.49700  0.23970  0.82220  Biso   1.000  H
  H40      1.0000 0.99700  0.23970  0.67780  Biso   1.000  H
  C57      1.0000 0.52870  0.86810  0.25980  Biso   1.000  C
  C58      1.0000 0.02870  0.86810  0.24020  Biso   1.000  C
  C59      1.0000 0.47130  0.13190  0.74020  Biso   1.000  C
  C60      1.0000 0.97130  0.13190  0.75980  Biso   1.000  C
  H41      1.0000 0.48310  0.95150  0.24600  Biso   1.000  H
  H42      1.0000 0.98310  0.95150  0.25400  Biso   1.000  H
  H43      1.0000 0.51690  0.04850  0.75400  Biso   1.000  H
  H44      1.0000 0.01690  0.04850  0.74600  Biso   1.000  H
