data_image0
_cell_length_a       7.134
_cell_length_b       12.873
_cell_length_c       19.0284
_cell_angle_alpha    107.786
_cell_angle_beta     90
_cell_angle_gamma    90

_symmetry_space_group_name_H-M    "P 1"
_symmetry_int_tables_number       1

loop_
  _symmetry_equiv_pos_as_xyz
  'x, y, z'

loop_
  _atom_site_label
  _atom_site_occupancy
  _atom_site_fract_x
  _atom_site_fract_y
  _atom_site_fract_z
  _atom_site_thermal_displace_type
  _atom_site_B_iso_or_equiv
  _atom_site_type_symbol
  Bi1      1.0000 0.10080  0.85230  0.21960  Biso   1.000  Bi
  Bi2      1.0000 0.60080  0.64770  0.28040  Biso   1.000  Bi
  Bi3      1.0000 0.89920  0.14770  0.78040  Biso   1.000  Bi
  Bi4      1.0000 0.39920  0.35230  0.71960  Biso   1.000  Bi
  Cl1      1.0000 0.95010  0.95280  0.13670  Biso   1.000  Cl
  Cl2      1.0000 0.45010  0.54720  0.36330  Biso   1.000  Cl
  Cl3      1.0000 0.04990  0.04720  0.86330  Biso   1.000  Cl
  Cl4      1.0000 0.54990  0.45280  0.63670  Biso   1.000  Cl
  Cl5      1.0000 0.84050  0.68690  0.16740  Biso   1.000  Cl
  Cl6      1.0000 0.34050  0.81310  0.33260  Biso   1.000  Cl
  Cl7      1.0000 0.15950  0.31310  0.83260  Biso   1.000  Cl
  Cl8      1.0000 0.65950  0.18690  0.66740  Biso   1.000  Cl
  Cl9      1.0000 0.86860  0.93040  0.32110  Biso   1.000  Cl
  Cl10     1.0000 0.36860  0.56960  0.17890  Biso   1.000  Cl
  Cl11     1.0000 0.13140  0.06960  0.67890  Biso   1.000  Cl
  Cl12     1.0000 0.63140  0.43040  0.82110  Biso   1.000  Cl
  Cl13     1.0000 0.81760  0.43430  0.45570  Biso   1.000  Cl
  Cl14     1.0000 0.31760  0.06570  0.04430  Biso   1.000  Cl
  Cl15     1.0000 0.18240  0.56570  0.54430  Biso   1.000  Cl
  Cl16     1.0000 0.68240  0.93430  0.95570  Biso   1.000  Cl
  N1       1.0000 0.51260  0.97470  0.19970  Biso   1.000  N
  N2       1.0000 0.01260  0.52530  0.30030  Biso   1.000  N
  N3       1.0000 0.48740  0.02530  0.80030  Biso   1.000  N
  N4       1.0000 0.98740  0.47470  0.69970  Biso   1.000  N
  N5       1.0000 0.41920  0.88490  0.15730  Biso   1.000  N
  N6       1.0000 0.91920  0.61510  0.34270  Biso   1.000  N
  N7       1.0000 0.58080  0.11510  0.84270  Biso   1.000  N
  N8       1.0000 0.08080  0.38490  0.65730  Biso   1.000  N
  O1       1.0000 0.22570  0.71420  0.07060  Biso   1.000  O
  O2       1.0000 0.72570  0.78580  0.42940  Biso   1.000  O
  O3       1.0000 0.77430  0.28580  0.92940  Biso   1.000  O
  O4       1.0000 0.27430  0.21420  0.57060  Biso   1.000  O
  O5       1.0000 0.26040  0.02480  0.27240  Biso   1.000  O
  O6       1.0000 0.76040  0.47520  0.22760  Biso   1.000  O
  O7       1.0000 0.73960  0.97520  0.72760  Biso   1.000  O
  O8       1.0000 0.23960  0.52480  0.77240  Biso   1.000  O
  C1       1.0000 0.16860  0.61870  0.01930  Biso   1.000  C
  C2       1.0000 0.66860  0.88130  0.48070  Biso   1.000  C
  C3       1.0000 0.83140  0.38130  0.98070  Biso   1.000  C
  C4       1.0000 0.33140  0.11870  0.51930  Biso   1.000  C
  C5       1.0000 0.30300  0.57670  0.97170  Biso   1.000  C
  C6       1.0000 0.80300  0.92330  0.52830  Biso   1.000  C
  C7       1.0000 0.69700  0.42330  0.02830  Biso   1.000  C
  C8       1.0000 0.19700  0.07670  0.47170  Biso   1.000  C
  C9       1.0000 0.46330  0.64680  0.99210  Biso   1.000  C
  C10      1.0000 0.96330  0.85320  0.50790  Biso   1.000  C
  C11      1.0000 0.53670  0.35320  0.00790  Biso   1.000  C
  C12      1.0000 0.03670  0.14680  0.49210  Biso   1.000  C
  C13      1.0000 0.40750  0.73020  0.05220  Biso   1.000  C
  C14      1.0000 0.90750  0.76980  0.44780  Biso   1.000  C
  C15      1.0000 0.59250  0.26980  0.94780  Biso   1.000  C
  C16      1.0000 0.09250  0.23020  0.55220  Biso   1.000  C
  C17      1.0000 0.49930  0.82390  0.09850  Biso   1.000  C
  C18      1.0000 0.99930  0.67610  0.40150  Biso   1.000  C
  C19      1.0000 0.50070  0.17610  0.90150  Biso   1.000  C
  C20      1.0000 0.00070  0.32390  0.59850  Biso   1.000  C
  C21      1.0000 0.42440  0.04350  0.25700  Biso   1.000  C
  C22      1.0000 0.92440  0.45650  0.24300  Biso   1.000  C
  C23      1.0000 0.57560  0.95650  0.74300  Biso   1.000  C
  C24      1.0000 0.07560  0.54350  0.75700  Biso   1.000  C
  C25      1.0000 0.52740  0.14050  0.30340  Biso   1.000  C
  C26      1.0000 0.02740  0.35950  0.19660  Biso   1.000  C
  C27      1.0000 0.47260  0.85950  0.69660  Biso   1.000  C
  C28      1.0000 0.97260  0.64050  0.80340  Biso   1.000  C
  C29      1.0000 0.43280  0.20820  0.36400  Biso   1.000  C
  C30      1.0000 0.93280  0.29180  0.13600  Biso   1.000  C
  C31      1.0000 0.56720  0.79180  0.63600  Biso   1.000  C
  C32      1.0000 0.06720  0.70820  0.86400  Biso   1.000  C
  C33      1.0000 0.52420  0.30130  0.40990  Biso   1.000  C
  C34      1.0000 0.02420  0.19870  0.09010  Biso   1.000  C
  C35      1.0000 0.47580  0.69870  0.59010  Biso   1.000  C
  C36      1.0000 0.97580  0.80130  0.90990  Biso   1.000  C
  C37      1.0000 0.70050  0.32200  0.39690  Biso   1.000  C
  C38      1.0000 0.20050  0.17800  0.10310  Biso   1.000  C
  C39      1.0000 0.29950  0.67800  0.60310  Biso   1.000  C
  C40      1.0000 0.79950  0.82200  0.89690  Biso   1.000  C
  C41      1.0000 0.79380  0.25620  0.33580  Biso   1.000  C
  C42      1.0000 0.29380  0.24380  0.16420  Biso   1.000  C
  C43      1.0000 0.20620  0.74380  0.66420  Biso   1.000  C
  C44      1.0000 0.70620  0.75620  0.83580  Biso   1.000  C
  C45      1.0000 0.70810  0.16650  0.28970  Biso   1.000  C
  C46      1.0000 0.20810  0.33350  0.21030  Biso   1.000  C
  C47      1.0000 0.29190  0.83350  0.71030  Biso   1.000  C
  C48      1.0000 0.79190  0.66650  0.78970  Biso   1.000  C
  H1       1.0000 0.63850  0.98800  0.18860  Biso   1.000  H
  H2       1.0000 0.13850  0.51200  0.31140  Biso   1.000  H
  H3       1.0000 0.36150  0.01200  0.81140  Biso   1.000  H
  H4       1.0000 0.86150  0.48800  0.68860  Biso   1.000  H
  H5       1.0000 0.04780  0.58720  0.01840  Biso   1.000  H
  H6       1.0000 0.54780  0.91280  0.48160  Biso   1.000  H
  H7       1.0000 0.95220  0.41280  0.98160  Biso   1.000  H
  H8       1.0000 0.45220  0.08720  0.51840  Biso   1.000  H
  H9       1.0000 0.29530  0.51180  0.93120  Biso   1.000  H
  H10      1.0000 0.79530  0.98820  0.56880  Biso   1.000  H
  H11      1.0000 0.70470  0.48820  0.06880  Biso   1.000  H
  H12      1.0000 0.20470  0.01180  0.43120  Biso   1.000  H
  H13      1.0000 0.58260  0.63730  0.96890  Biso   1.000  H
  H14      1.0000 0.08260  0.86270  0.53110  Biso   1.000  H
  H15      1.0000 0.41740  0.36270  0.03110  Biso   1.000  H
  H16      1.0000 0.91740  0.13730  0.46890  Biso   1.000  H
  H17      1.0000 0.62140  0.84180  0.08590  Biso   1.000  H
  H18      1.0000 0.12140  0.65820  0.41410  Biso   1.000  H
  H19      1.0000 0.37860  0.15820  0.91410  Biso   1.000  H
  H20      1.0000 0.87860  0.34180  0.58590  Biso   1.000  H
  H21      1.0000 0.30790  0.19180  0.37430  Biso   1.000  H
  H22      1.0000 0.80790  0.30820  0.12570  Biso   1.000  H
  H23      1.0000 0.69210  0.80820  0.62570  Biso   1.000  H
  H24      1.0000 0.19210  0.69180  0.87430  Biso   1.000  H
  H25      1.0000 0.45900  0.34950  0.45030  Biso   1.000  H
  H26      1.0000 0.95900  0.15050  0.04970  Biso   1.000  H
  H27      1.0000 0.54100  0.65050  0.54970  Biso   1.000  H
  H28      1.0000 0.04100  0.84950  0.95030  Biso   1.000  H
  H29      1.0000 0.91850  0.27350  0.32590  Biso   1.000  H
  H30      1.0000 0.41850  0.22650  0.17410  Biso   1.000  H
  H31      1.0000 0.08150  0.72650  0.67410  Biso   1.000  H
  H32      1.0000 0.58150  0.77350  0.82590  Biso   1.000  H
  H33      1.0000 0.77340  0.12160  0.24790  Biso   1.000  H
  H34      1.0000 0.27340  0.37840  0.25210  Biso   1.000  H
  H35      1.0000 0.22660  0.87840  0.75210  Biso   1.000  H
  H36      1.0000 0.72660  0.62160  0.74790  Biso   1.000  H
