data_image0
_cell_length_a       13.9872
_cell_length_b       16.0374
_cell_length_c       19.081
_cell_angle_alpha    90
_cell_angle_beta     90
_cell_angle_gamma    107.295

_symmetry_space_group_name_H-M    "P 1"
_symmetry_int_tables_number       1

loop_
  _symmetry_equiv_pos_as_xyz
  'x, y, z'

loop_
  _atom_site_label
  _atom_site_occupancy
  _atom_site_fract_x
  _atom_site_fract_y
  _atom_site_fract_z
  _atom_site_thermal_displace_type
  _atom_site_B_iso_or_equiv
  _atom_site_type_symbol
  Sn1      1.0000 0.43014  0.87240  0.66051  Biso   1.000  Sn
  Sn2      1.0000 0.56986  0.12760  0.33949  Biso   1.000  Sn
  Sn3      1.0000 0.06986  0.62760  0.16051  Biso   1.000  Sn
  Sn4      1.0000 0.93014  0.37240  0.83949  Biso   1.000  Sn
  Sn5      1.0000 0.43814  0.07884  0.75482  Biso   1.000  Sn
  Sn6      1.0000 0.56186  0.92116  0.24518  Biso   1.000  Sn
  Sn7      1.0000 0.06186  0.42116  0.25482  Biso   1.000  Sn
  Sn8      1.0000 0.93814  0.57884  0.74518  Biso   1.000  Sn
  Sn9      1.0000 0.59907  0.94078  0.78684  Biso   1.000  Sn
  Sn10     1.0000 0.40093  0.05922  0.21316  Biso   1.000  Sn
  Sn11     1.0000 0.90093  0.55922  0.28684  Biso   1.000  Sn
  Sn12     1.0000 0.09907  0.44078  0.71316  Biso   1.000  Sn
  Sn13     1.0000 0.55881  0.71626  0.73046  Biso   1.000  Sn
  Sn14     1.0000 0.44119  0.28374  0.26954  Biso   1.000  Sn
  Sn15     1.0000 0.94119  0.78374  0.23046  Biso   1.000  Sn
  Sn16     1.0000 0.05881  0.21626  0.76954  Biso   1.000  Sn
  O1       1.0000 0.49100  0.97860  0.73460  Biso   1.000  O
  O2       1.0000 0.50900  0.02140  0.26540  Biso   1.000  O
  O3       1.0000 0.00900  0.52140  0.23460  Biso   1.000  O
  O4       1.0000 0.99100  0.47860  0.76540  Biso   1.000  O
  O5       1.0000 0.53280  0.83250  0.72020  Biso   1.000  O
  O6       1.0000 0.46720  0.16750  0.27980  Biso   1.000  O
  O7       1.0000 0.96720  0.66750  0.22020  Biso   1.000  O
  O8       1.0000 0.03280  0.33250  0.77980  Biso   1.000  O
  O9       1.0000 0.32110  0.96070  0.61650  Biso   1.000  O
  O10      1.0000 0.67890  0.03930  0.38350  Biso   1.000  O
  O11      1.0000 0.17890  0.53930  0.11650  Biso   1.000  O
  O12      1.0000 0.82110  0.46070  0.88350  Biso   1.000  O
  O13      1.0000 0.40700  0.09510  0.64680  Biso   1.000  O
  O14      1.0000 0.59300  0.90490  0.35320  Biso   1.000  O
  O15      1.0000 0.09300  0.40490  0.14680  Biso   1.000  O
  O16      1.0000 0.90700  0.59510  0.85320  Biso   1.000  O
  O17      1.0000 0.20260  0.16200  0.69930  Biso   1.000  O
  O18      1.0000 0.79740  0.83800  0.30070  Biso   1.000  O
  O19      1.0000 0.29740  0.33800  0.19930  Biso   1.000  O
  O20      1.0000 0.70260  0.66200  0.80070  Biso   1.000  O
  O21      1.0000 0.18950  0.29390  0.71280  Biso   1.000  O
  O22      1.0000 0.81050  0.70610  0.28720  Biso   1.000  O
  O23      1.0000 0.31050  0.20610  0.21280  Biso   1.000  O
  O24      1.0000 0.68950  0.79390  0.78720  Biso   1.000  O
  O25      1.0000 0.48490  0.07780  0.86870  Biso   1.000  O
  O26      1.0000 0.51510  0.92220  0.13130  Biso   1.000  O
  O27      1.0000 0.01510  0.42220  0.36870  Biso   1.000  O
  O28      1.0000 0.98490  0.57780  0.63130  Biso   1.000  O
  O29      1.0000 0.63940  0.07210  0.84720  Biso   1.000  O
  O30      1.0000 0.36060  0.92790  0.15280  Biso   1.000  O
  O31      1.0000 0.86060  0.42790  0.34720  Biso   1.000  O
  O32      1.0000 0.13940  0.57210  0.65280  Biso   1.000  O
  O33      1.0000 0.89510  0.24750  0.90870  Biso   1.000  O
  O34      1.0000 0.10490  0.75250  0.09130  Biso   1.000  O
  O35      1.0000 0.60490  0.25250  0.40870  Biso   1.000  O
  O36      1.0000 0.39510  0.74750  0.59130  Biso   1.000  O
  O37      1.0000 0.91730  0.15330  0.82960  Biso   1.000  O
  O38      1.0000 0.08270  0.84670  0.17040  Biso   1.000  O
  O39      1.0000 0.58270  0.34670  0.32960  Biso   1.000  O
  O40      1.0000 0.41730  0.65330  0.67040  Biso   1.000  O
  C1       1.0000 0.52110  0.93070  0.57670  Biso   1.000  C
  C2       1.0000 0.47890  0.06930  0.42330  Biso   1.000  C
  C3       1.0000 0.97890  0.56930  0.07670  Biso   1.000  C
  C4       1.0000 0.02110  0.43070  0.92330  Biso   1.000  C
  H1       1.0000 0.57940  0.91080  0.57560  Biso   1.000  H
  H2       1.0000 0.42060  0.08920  0.42440  Biso   1.000  H
  H3       1.0000 0.92060  0.58920  0.07560  Biso   1.000  H
  H4       1.0000 0.07940  0.41080  0.92440  Biso   1.000  H
  H5       1.0000 0.54120  0.99300  0.58230  Biso   1.000  H
  H6       1.0000 0.45880  0.00700  0.41770  Biso   1.000  H
  H7       1.0000 0.95880  0.50700  0.08230  Biso   1.000  H
  H8       1.0000 0.04120  0.49300  0.91770  Biso   1.000  H
  H9       1.0000 0.48460  0.91520  0.53370  Biso   1.000  H
  H10      1.0000 0.51540  0.08480  0.46630  Biso   1.000  H
  H11      1.0000 0.01540  0.58480  0.03370  Biso   1.000  H
  H12      1.0000 0.98460  0.41520  0.96630  Biso   1.000  H
  C5       1.0000 0.29620  0.80990  0.71400  Biso   1.000  C
  C6       1.0000 0.70380  0.19010  0.28600  Biso   1.000  C
  C7       1.0000 0.20380  0.69010  0.21400  Biso   1.000  C
  C8       1.0000 0.79620  0.30990  0.78600  Biso   1.000  C
  H13      1.0000 0.30570  0.76360  0.74240  Biso   1.000  H
  H14      1.0000 0.69430  0.23640  0.25760  Biso   1.000  H
  H15      1.0000 0.19430  0.73640  0.24240  Biso   1.000  H
  H16      1.0000 0.80570  0.26360  0.75760  Biso   1.000  H
  H17      1.0000 0.24380  0.78620  0.68060  Biso   1.000  H
  H18      1.0000 0.75620  0.21380  0.31940  Biso   1.000  H
  H19      1.0000 0.25620  0.71380  0.18060  Biso   1.000  H
  H20      1.0000 0.74380  0.28620  0.81940  Biso   1.000  H
  H21      1.0000 0.27810  0.85150  0.74330  Biso   1.000  H
  H22      1.0000 0.72190  0.14850  0.25670  Biso   1.000  H
  H23      1.0000 0.22190  0.64850  0.24330  Biso   1.000  H
  H24      1.0000 0.77810  0.35150  0.75670  Biso   1.000  H
  C9       1.0000 0.54380  0.20120  0.74650  Biso   1.000  C
  C10      1.0000 0.45620  0.79880  0.25350  Biso   1.000  C
  C11      1.0000 0.95620  0.29880  0.24650  Biso   1.000  C
  C12      1.0000 0.04380  0.70120  0.75350  Biso   1.000  C
  H25      1.0000 0.54330  0.22300  0.69970  Biso   1.000  H
  H26      1.0000 0.45670  0.77700  0.30030  Biso   1.000  H
  H27      1.0000 0.95670  0.27700  0.19970  Biso   1.000  H
  H28      1.0000 0.04330  0.72300  0.80030  Biso   1.000  H
  H29      1.0000 0.60910  0.19640  0.75690  Biso   1.000  H
  H30      1.0000 0.39090  0.80360  0.24310  Biso   1.000  H
  H31      1.0000 0.89090  0.30360  0.25690  Biso   1.000  H
  H32      1.0000 0.10910  0.69640  0.74310  Biso   1.000  H
  H33      1.0000 0.52790  0.24070  0.77910  Biso   1.000  H
  H34      1.0000 0.47210  0.75930  0.22090  Biso   1.000  H
  H35      1.0000 0.97210  0.25930  0.27910  Biso   1.000  H
  H36      1.0000 0.02790  0.74070  0.72090  Biso   1.000  H
  C13      1.0000 0.28860  0.02930  0.78830  Biso   1.000  C
  C14      1.0000 0.71140  0.97070  0.21170  Biso   1.000  C
  C15      1.0000 0.21140  0.47070  0.28830  Biso   1.000  C
  C16      1.0000 0.78860  0.52930  0.71170  Biso   1.000  C
  H37      1.0000 0.24480  0.02140  0.74850  Biso   1.000  H
  H38      1.0000 0.75520  0.97860  0.25150  Biso   1.000  H
  H39      1.0000 0.25520  0.47860  0.24850  Biso   1.000  H
  H40      1.0000 0.74480  0.52140  0.75150  Biso   1.000  H
  H41      1.0000 0.27340  0.06980  0.82030  Biso   1.000  H
  H42      1.0000 0.72660  0.93020  0.17970  Biso   1.000  H
  H43      1.0000 0.22660  0.43020  0.32030  Biso   1.000  H
  H44      1.0000 0.77340  0.56980  0.67970  Biso   1.000  H
  H45      1.0000 0.27930  0.97430  0.81130  Biso   1.000  H
  H46      1.0000 0.72070  0.02570  0.18870  Biso   1.000  H
  H47      1.0000 0.22070  0.52570  0.31130  Biso   1.000  H
  H48      1.0000 0.77930  0.47430  0.68870  Biso   1.000  H
  C17      1.0000 0.54650  0.87820  0.88250  Biso   1.000  C
  C18      1.0000 0.45350  0.12180  0.11750  Biso   1.000  C
  C19      1.0000 0.95350  0.62180  0.38250  Biso   1.000  C
  C20      1.0000 0.04650  0.37820  0.61750  Biso   1.000  C
  H49      1.0000 0.52180  0.81620  0.87510  Biso   1.000  H
  H50      1.0000 0.47820  0.18380  0.12490  Biso   1.000  H
  H51      1.0000 0.97820  0.68380  0.37510  Biso   1.000  H
  H52      1.0000 0.02180  0.31620  0.62490  Biso   1.000  H
  H53      1.0000 0.49350  0.89900  0.90010  Biso   1.000  H
  H54      1.0000 0.50650  0.10100  0.09990  Biso   1.000  H
  H55      1.0000 0.00650  0.60100  0.40010  Biso   1.000  H
  H56      1.0000 0.99350  0.39900  0.59990  Biso   1.000  H
  H57      1.0000 0.60030  0.89080  0.91580  Biso   1.000  H
  H58      1.0000 0.39970  0.10920  0.08420  Biso   1.000  H
  H59      1.0000 0.89970  0.60920  0.41580  Biso   1.000  H
  H60      1.0000 0.10030  0.39080  0.58420  Biso   1.000  H
  C21      1.0000 0.73440  0.99490  0.73360  Biso   1.000  C
  C22      1.0000 0.26560  0.00510  0.26640  Biso   1.000  C
  C23      1.0000 0.76560  0.50510  0.23360  Biso   1.000  C
  C24      1.0000 0.23440  0.49490  0.76640  Biso   1.000  C
  H61      1.0000 0.74400  0.95360  0.69990  Biso   1.000  H
  H62      1.0000 0.25600  0.04640  0.30010  Biso   1.000  H
  H63      1.0000 0.75600  0.54640  0.19990  Biso   1.000  H
  H64      1.0000 0.24400  0.45360  0.80010  Biso   1.000  H
  H65      1.0000 0.78880  0.00860  0.76650  Biso   1.000  H
  H66      1.0000 0.21120  0.99140  0.23350  Biso   1.000  H
  H67      1.0000 0.71120  0.49140  0.26650  Biso   1.000  H
  H68      1.0000 0.28880  0.50860  0.73350  Biso   1.000  H
  H69      1.0000 0.73250  0.04720  0.70990  Biso   1.000  H
  H70      1.0000 0.26750  0.95280  0.29010  Biso   1.000  H
  H71      1.0000 0.76750  0.45280  0.20990  Biso   1.000  H
  H72      1.0000 0.23250  0.54720  0.79010  Biso   1.000  H
  C25      1.0000 0.63750  0.69450  0.64240  Biso   1.000  C
  C26      1.0000 0.36250  0.30550  0.35760  Biso   1.000  C
  C27      1.0000 0.86250  0.80550  0.14240  Biso   1.000  C
  C28      1.0000 0.13750  0.19450  0.85760  Biso   1.000  C
  H73      1.0000 0.66190  0.74780  0.61640  Biso   1.000  H
  H74      1.0000 0.33810  0.25220  0.38360  Biso   1.000  H
  H75      1.0000 0.83810  0.75220  0.11640  Biso   1.000  H
  H76      1.0000 0.16190  0.24780  0.88360  Biso   1.000  H
  H77      1.0000 0.59370  0.65070  0.61340  Biso   1.000  H
  H78      1.0000 0.40630  0.34930  0.38660  Biso   1.000  H
  H79      1.0000 0.90630  0.84930  0.11340  Biso   1.000  H
  H80      1.0000 0.09370  0.15070  0.88660  Biso   1.000  H
  H81      1.0000 0.69290  0.67520  0.65720  Biso   1.000  H
  H82      1.0000 0.30710  0.32480  0.34280  Biso   1.000  H
  H83      1.0000 0.80710  0.82480  0.15720  Biso   1.000  H
  H84      1.0000 0.19290  0.17520  0.84280  Biso   1.000  H
  C29      1.0000 0.48140  0.64580  0.81550  Biso   1.000  C
  C30      1.0000 0.51860  0.35420  0.18450  Biso   1.000  C
  C31      1.0000 0.01860  0.85420  0.31550  Biso   1.000  C
  C32      1.0000 0.98140  0.14580  0.68450  Biso   1.000  C
  H85      1.0000 0.45640  0.68370  0.84440  Biso   1.000  H
  H86      1.0000 0.54360  0.31630  0.15560  Biso   1.000  H
  H87      1.0000 0.04360  0.81630  0.34440  Biso   1.000  H
  H88      1.0000 0.95640  0.18370  0.65560  Biso   1.000  H
  H89      1.0000 0.52570  0.62280  0.84240  Biso   1.000  H
  H90      1.0000 0.47430  0.37720  0.15760  Biso   1.000  H
  H91      1.0000 0.97430  0.87720  0.34240  Biso   1.000  H
  H92      1.0000 0.02570  0.12280  0.65760  Biso   1.000  H
  H93      1.0000 0.42630  0.59860  0.79870  Biso   1.000  H
  H94      1.0000 0.57370  0.40140  0.20130  Biso   1.000  H
  H95      1.0000 0.07370  0.90140  0.29870  Biso   1.000  H
  H96      1.0000 0.92630  0.09860  0.70130  Biso   1.000  H
  C33      1.0000 0.33970  0.04140  0.61030  Biso   1.000  C
  C34      1.0000 0.66030  0.95860  0.38970  Biso   1.000  C
  C35      1.0000 0.16030  0.45860  0.11030  Biso   1.000  C
  C36      1.0000 0.83970  0.54140  0.88970  Biso   1.000  C
  C37      1.0000 0.28090  0.07830  0.56030  Biso   1.000  C
  C38      1.0000 0.71910  0.92170  0.43970  Biso   1.000  C
  C39      1.0000 0.21910  0.42170  0.06030  Biso   1.000  C
  C40      1.0000 0.78090  0.57830  0.93970  Biso   1.000  C
  C41      1.0000 0.28690  0.16730  0.55690  Biso   1.000  C
  C42      1.0000 0.71310  0.83270  0.44310  Biso   1.000  C
  C43      1.0000 0.21310  0.33270  0.05690  Biso   1.000  C
  C44      1.0000 0.78690  0.66730  0.94310  Biso   1.000  C
  C45      1.0000 0.22200  0.19030  0.51380  Biso   1.000  C
  C46      1.0000 0.77800  0.80970  0.48620  Biso   1.000  C
  C47      1.0000 0.27800  0.30970  0.01380  Biso   1.000  C
  C48      1.0000 0.72200  0.69030  0.98620  Biso   1.000  C
  H97      1.0000 0.22390  0.24880  0.51220  Biso   1.000  H
  H98      1.0000 0.77610  0.75120  0.48780  Biso   1.000  H
  H99      1.0000 0.27610  0.25120  0.01220  Biso   1.000  H
  H100     1.0000 0.72390  0.74880  0.98780  Biso   1.000  H
  C49      1.0000 0.15340  0.13190  0.47220  Biso   1.000  C
  C50      1.0000 0.84660  0.86810  0.52780  Biso   1.000  C
  C51      1.0000 0.34660  0.36810  0.97220  Biso   1.000  C
  C52      1.0000 0.65340  0.63190  0.02780  Biso   1.000  C
  H101     1.0000 0.11070  0.15090  0.44320  Biso   1.000  H
  H102     1.0000 0.88930  0.84910  0.55680  Biso   1.000  H
  H103     1.0000 0.38930  0.34910  0.94320  Biso   1.000  H
  H104     1.0000 0.61070  0.65090  0.05680  Biso   1.000  H
  C53      1.0000 0.14860  0.04500  0.47420  Biso   1.000  C
  C54      1.0000 0.85140  0.95500  0.52580  Biso   1.000  C
  C55      1.0000 0.35140  0.45500  0.97420  Biso   1.000  C
  C56      1.0000 0.64860  0.54500  0.02580  Biso   1.000  C
  H105     1.0000 0.10360  0.00460  0.44600  Biso   1.000  H
  H106     1.0000 0.89640  0.99540  0.55400  Biso   1.000  H
  H107     1.0000 0.39640  0.49540  0.94600  Biso   1.000  H
  H108     1.0000 0.60360  0.50460  0.05400  Biso   1.000  H
  C57      1.0000 0.21140  0.01910  0.51860  Biso   1.000  C
  C58      1.0000 0.78860  0.98090  0.48140  Biso   1.000  C
  C59      1.0000 0.28860  0.48090  0.01860  Biso   1.000  C
  C60      1.0000 0.71140  0.51910  0.98140  Biso   1.000  C
  H109     1.0000 0.20740  0.96020  0.52080  Biso   1.000  H
  H110     1.0000 0.79260  0.03980  0.47920  Biso   1.000  H
  H111     1.0000 0.29260  0.53980  0.02080  Biso   1.000  H
  H112     1.0000 0.70740  0.46020  0.97920  Biso   1.000  H
  C61      1.0000 0.23580  0.24020  0.69000  Biso   1.000  C
  C62      1.0000 0.76420  0.75980  0.31000  Biso   1.000  C
  C63      1.0000 0.26420  0.25980  0.19000  Biso   1.000  C
  C64      1.0000 0.73580  0.74020  0.81000  Biso   1.000  C
  C65      1.0000 0.33470  0.28010  0.65370  Biso   1.000  C
  C66      1.0000 0.66530  0.71990  0.34630  Biso   1.000  C
  C67      1.0000 0.16530  0.21990  0.15370  Biso   1.000  C
  C68      1.0000 0.83470  0.78010  0.84630  Biso   1.000  C
  C69      1.0000 0.36120  0.23890  0.59570  Biso   1.000  C
  C70      1.0000 0.63880  0.76110  0.40430  Biso   1.000  C
  C71      1.0000 0.13880  0.26110  0.09570  Biso   1.000  C
  C72      1.0000 0.86120  0.73890  0.90430  Biso   1.000  C
  C73      1.0000 0.45680  0.27590  0.56770  Biso   1.000  C
  C74      1.0000 0.54320  0.72410  0.43230  Biso   1.000  C
  C75      1.0000 0.04320  0.22410  0.06770  Biso   1.000  C
  C76      1.0000 0.95680  0.77590  0.93230  Biso   1.000  C
  H113     1.0000 0.47620  0.25090  0.52820  Biso   1.000  H
  H114     1.0000 0.52380  0.74910  0.47180  Biso   1.000  H
  H115     1.0000 0.02380  0.24910  0.02820  Biso   1.000  H
  H116     1.0000 0.97620  0.75090  0.97180  Biso   1.000  H
  C77      1.0000 0.52220  0.34810  0.59730  Biso   1.000  C
  C78      1.0000 0.47780  0.65190  0.40270  Biso   1.000  C
  C79      1.0000 0.97780  0.15190  0.09730  Biso   1.000  C
  C80      1.0000 0.02220  0.84810  0.90270  Biso   1.000  C
  H117     1.0000 0.58600  0.37070  0.57830  Biso   1.000  H
  H118     1.0000 0.41400  0.62930  0.42170  Biso   1.000  H
  H119     1.0000 0.91400  0.12930  0.07830  Biso   1.000  H
  H120     1.0000 0.08600  0.87070  0.92170  Biso   1.000  H
  C81      1.0000 0.49530  0.38800  0.65470  Biso   1.000  C
  C82      1.0000 0.50470  0.61200  0.34530  Biso   1.000  C
  C83      1.0000 0.00470  0.11200  0.15470  Biso   1.000  C
  C84      1.0000 0.99530  0.88800  0.84530  Biso   1.000  C
  H121     1.0000 0.54010  0.43740  0.67430  Biso   1.000  H
  H122     1.0000 0.45990  0.56260  0.32570  Biso   1.000  H
  H123     1.0000 0.95990  0.06260  0.17430  Biso   1.000  H
  H124     1.0000 0.04010  0.93740  0.82570  Biso   1.000  H
  C85      1.0000 0.40090  0.35330  0.68270  Biso   1.000  C
  C86      1.0000 0.59910  0.64670  0.31730  Biso   1.000  C
  C87      1.0000 0.09910  0.14670  0.18270  Biso   1.000  C
  C88      1.0000 0.90090  0.85330  0.81730  Biso   1.000  C
  H125     1.0000 0.38190  0.37950  0.72160  Biso   1.000  H
  H126     1.0000 0.61810  0.62050  0.27840  Biso   1.000  H
  H127     1.0000 0.11810  0.12050  0.22160  Biso   1.000  H
  H128     1.0000 0.88190  0.87950  0.77840  Biso   1.000  H
  C89      1.0000 0.57750  0.09870  0.88250  Biso   1.000  C
  C90      1.0000 0.42250  0.90130  0.11750  Biso   1.000  C
  C91      1.0000 0.92250  0.40130  0.38250  Biso   1.000  C
  C92      1.0000 0.07750  0.59870  0.61750  Biso   1.000  C
  C93      1.0000 0.61720  0.16190  0.94070  Biso   1.000  C
  C94      1.0000 0.38280  0.83810  0.05930  Biso   1.000  C
  C95      1.0000 0.88280  0.33810  0.44070  Biso   1.000  C
  C96      1.0000 0.11720  0.66190  0.55930  Biso   1.000  C
  C97      1.0000 0.70180  0.16460  0.97890  Biso   1.000  C
  C98      1.0000 0.29820  0.83540  0.02110  Biso   1.000  C
  C99      1.0000 0.79820  0.33540  0.47890  Biso   1.000  C
  C100     1.0000 0.20180  0.66460  0.52110  Biso   1.000  C
  C101     1.0000 0.73500  0.22920  0.02960  Biso   1.000  C
  C102     1.0000 0.26500  0.77080  0.97040  Biso   1.000  C
  C103     1.0000 0.76500  0.27080  0.52960  Biso   1.000  C
  C104     1.0000 0.23500  0.72920  0.47040  Biso   1.000  C
  H129     1.0000 0.79130  0.23100  0.05620  Biso   1.000  H
  H130     1.0000 0.20870  0.76900  0.94380  Biso   1.000  H
  H131     1.0000 0.70870  0.26900  0.55620  Biso   1.000  H
  H132     1.0000 0.29130  0.73100  0.44380  Biso   1.000  H
  C105     1.0000 0.68530  0.29040  0.04070  Biso   1.000  C
  C106     1.0000 0.31470  0.70960  0.95930  Biso   1.000  C
  C107     1.0000 0.81470  0.20960  0.54070  Biso   1.000  C
  C108     1.0000 0.18530  0.79040  0.45930  Biso   1.000  C
  H133     1.0000 0.70970  0.33420  0.07370  Biso   1.000  H
  H134     1.0000 0.29030  0.66580  0.92630  Biso   1.000  H
  H135     1.0000 0.79030  0.16580  0.57370  Biso   1.000  H
  H136     1.0000 0.20970  0.83420  0.42630  Biso   1.000  H
  C109     1.0000 0.60000  0.28780  0.00350  Biso   1.000  C
  C110     1.0000 0.40000  0.71220  0.99650  Biso   1.000  C
  C111     1.0000 0.90000  0.21220  0.50350  Biso   1.000  C
  C112     1.0000 0.10000  0.78780  0.49650  Biso   1.000  C
  H137     1.0000 0.56590  0.32860  0.01190  Biso   1.000  H
  H138     1.0000 0.43410  0.67140  0.98810  Biso   1.000  H
  H139     1.0000 0.93410  0.17140  0.51190  Biso   1.000  H
  H140     1.0000 0.06590  0.82860  0.48810  Biso   1.000  H
  C113     1.0000 0.56630  0.22410  0.95410  Biso   1.000  C
  C114     1.0000 0.43370  0.77590  0.04590  Biso   1.000  C
  C115     1.0000 0.93370  0.27590  0.45410  Biso   1.000  C
  C116     1.0000 0.06630  0.72410  0.54590  Biso   1.000  C
  H141     1.0000 0.50870  0.22170  0.92880  Biso   1.000  H
  H142     1.0000 0.49130  0.77830  0.07120  Biso   1.000  H
  H143     1.0000 0.99130  0.27830  0.42880  Biso   1.000  H
  H144     1.0000 0.00870  0.72170  0.57120  Biso   1.000  H
  C117     1.0000 0.88530  0.17140  0.88720  Biso   1.000  C
  C118     1.0000 0.11470  0.82860  0.11280  Biso   1.000  C
  C119     1.0000 0.61470  0.32860  0.38720  Biso   1.000  C
  C120     1.0000 0.38530  0.67140  0.61280  Biso   1.000  C
  C121     1.0000 0.83490  0.09610  0.93380  Biso   1.000  C
  C122     1.0000 0.16510  0.90390  0.06620  Biso   1.000  C
  C123     1.0000 0.66510  0.40390  0.43380  Biso   1.000  C
  C124     1.0000 0.33490  0.59610  0.56620  Biso   1.000  C
  C125     1.0000 0.75130  0.09330  0.97500  Biso   1.000  C
  C126     1.0000 0.24870  0.90670  0.02500  Biso   1.000  C
  C127     1.0000 0.74870  0.40670  0.47500  Biso   1.000  C
  C128     1.0000 0.25130  0.59330  0.52500  Biso   1.000  C
  C129     1.0000 0.71010  0.02030  0.01670  Biso   1.000  C
  C130     1.0000 0.28990  0.97970  0.98330  Biso   1.000  C
  C131     1.0000 0.78990  0.47970  0.51670  Biso   1.000  C
  C132     1.0000 0.21010  0.52030  0.48330  Biso   1.000  C
  H145     1.0000 0.65370  0.01720  0.04350  Biso   1.000  H
  H146     1.0000 0.34630  0.98280  0.95650  Biso   1.000  H
  H147     1.0000 0.84630  0.48280  0.54350  Biso   1.000  H
  H148     1.0000 0.15370  0.51720  0.45650  Biso   1.000  H
  C133     1.0000 0.75180  0.95190  0.01890  Biso   1.000  C
  C134     1.0000 0.24820  0.04810  0.98110  Biso   1.000  C
  C135     1.0000 0.74820  0.54810  0.51890  Biso   1.000  C
  C136     1.0000 0.25180  0.45190  0.48110  Biso   1.000  C
  H149     1.0000 0.72370  0.90390  0.04750  Biso   1.000  H
  H150     1.0000 0.27630  0.09610  0.95250  Biso   1.000  H
  H151     1.0000 0.77630  0.59610  0.54750  Biso   1.000  H
  H152     1.0000 0.22370  0.40390  0.45250  Biso   1.000  H
  C137     1.0000 0.83410  0.95500  0.97900  Biso   1.000  C
  C138     1.0000 0.16590  0.04500  0.02100  Biso   1.000  C
  C139     1.0000 0.66590  0.54500  0.47900  Biso   1.000  C
  C140     1.0000 0.33410  0.45500  0.52100  Biso   1.000  C
  H153     1.0000 0.86270  0.90960  0.98090  Biso   1.000  H
  H154     1.0000 0.13730  0.09040  0.01910  Biso   1.000  H
  H155     1.0000 0.63730  0.59040  0.48090  Biso   1.000  H
  H156     1.0000 0.36270  0.40960  0.51910  Biso   1.000  H
  C141     1.0000 0.87470  0.02600  0.93590  Biso   1.000  C
  C142     1.0000 0.12530  0.97400  0.06410  Biso   1.000  C
  C143     1.0000 0.62530  0.47400  0.43590  Biso   1.000  C
  C144     1.0000 0.37470  0.52600  0.56410  Biso   1.000  C
  H157     1.0000 0.92940  0.02710  0.90780  Biso   1.000  H
  H158     1.0000 0.07060  0.97290  0.09220  Biso   1.000  H
  H159     1.0000 0.57060  0.47290  0.40780  Biso   1.000  H
  H160     1.0000 0.42940  0.52710  0.59220  Biso   1.000  H
