data_image0
_cell_length_a       9.5316
_cell_length_b       12.8267
_cell_length_c       28.9972
_cell_angle_alpha    90
_cell_angle_beta     90
_cell_angle_gamma    92.186

_symmetry_space_group_name_H-M    "P 1"
_symmetry_int_tables_number       1

loop_
  _symmetry_equiv_pos_as_xyz
  'x, y, z'

loop_
  _atom_site_label
  _atom_site_occupancy
  _atom_site_fract_x
  _atom_site_fract_y
  _atom_site_fract_z
  _atom_site_thermal_displace_type
  _atom_site_B_iso_or_equiv
  _atom_site_type_symbol
  Mn1      1.0000 0.50000  0.00000  0.50000  Biso   1.000  Mn
  Mn2      1.0000 0.00000  0.00000  0.50000  Biso   1.000  Mn
  Mn3      1.0000 0.50000  0.50000  0.00000  Biso   1.000  Mn
  Mn4      1.0000 0.00000  0.50000  0.00000  Biso   1.000  Mn
  Mn5      1.0000 0.75000  0.00000  0.59380  Biso   1.000  Mn
  Mn6      1.0000 0.75000  0.50000  0.09380  Biso   1.000  Mn
  Mn7      1.0000 0.25000  0.00000  0.40620  Biso   1.000  Mn
  Mn8      1.0000 0.25000  0.50000  0.90620  Biso   1.000  Mn
  O1       1.0000 0.40781  0.95620  0.56311  Biso   1.000  O
  O2       1.0000 0.09219  0.04380  0.56311  Biso   1.000  O
  O3       1.0000 0.40781  0.45620  0.06311  Biso   1.000  O
  O4       1.0000 0.09219  0.54380  0.06311  Biso   1.000  O
  O5       1.0000 0.59219  0.04380  0.43689  Biso   1.000  O
  O6       1.0000 0.90781  0.95620  0.43689  Biso   1.000  O
  O7       1.0000 0.59219  0.54380  0.93689  Biso   1.000  O
  O8       1.0000 0.90781  0.45620  0.93689  Biso   1.000  O
  O9       1.0000 0.62811  0.86120  0.50201  Biso   1.000  O
  O10      1.0000 0.87189  0.13880  0.50201  Biso   1.000  O
  O11      1.0000 0.62811  0.36120  0.00201  Biso   1.000  O
  O12      1.0000 0.87189  0.63880  0.00201  Biso   1.000  O
  O13      1.0000 0.37189  0.13880  0.49799  Biso   1.000  O
  O14      1.0000 0.12811  0.86120  0.49799  Biso   1.000  O
  O15      1.0000 0.37189  0.63880  0.99799  Biso   1.000  O
  O16      1.0000 0.12811  0.36120  0.99799  Biso   1.000  O
  O17      1.0000 0.71805  0.66728  0.48167  Biso   1.000  O
  O18      1.0000 0.78195  0.33272  0.48167  Biso   1.000  O
  O19      1.0000 0.71805  0.16728  0.98167  Biso   1.000  O
  O20      1.0000 0.78195  0.83272  0.98167  Biso   1.000  O
  O21      1.0000 0.28195  0.33272  0.51833  Biso   1.000  O
  O22      1.0000 0.21805  0.66728  0.51833  Biso   1.000  O
  O23      1.0000 0.28195  0.83272  0.01833  Biso   1.000  O
  O24      1.0000 0.21805  0.16728  0.01833  Biso   1.000  O
  C1       1.0000 0.81310  0.74090  0.50272  Biso   1.000  C
  C2       1.0000 0.68690  0.25910  0.50272  Biso   1.000  C
  C3       1.0000 0.81310  0.24090  0.00272  Biso   1.000  C
  C4       1.0000 0.68690  0.75910  0.00272  Biso   1.000  C
  C5       1.0000 0.18690  0.25910  0.49728  Biso   1.000  C
  C6       1.0000 0.31310  0.74090  0.49728  Biso   1.000  C
  C7       1.0000 0.18690  0.75910  0.99728  Biso   1.000  C
  C8       1.0000 0.31310  0.24090  0.99728  Biso   1.000  C
  H1       1.0000 0.89200  0.75410  0.48210  Biso   1.000  H
  H2       1.0000 0.60800  0.24590  0.48210  Biso   1.000  H
  H3       1.0000 0.89200  0.25410  0.98210  Biso   1.000  H
  H4       1.0000 0.60800  0.74590  0.98210  Biso   1.000  H
  H5       1.0000 0.10800  0.24590  0.51790  Biso   1.000  H
  H6       1.0000 0.39200  0.75410  0.51790  Biso   1.000  H
  H7       1.0000 0.10800  0.74590  0.01790  Biso   1.000  H
  H8       1.0000 0.39200  0.25410  0.01790  Biso   1.000  H
  H9       1.0000 0.84920  0.71070  0.53080  Biso   1.000  H
  H10      1.0000 0.65080  0.28930  0.53080  Biso   1.000  H
  H11      1.0000 0.84920  0.21070  0.03080  Biso   1.000  H
  H12      1.0000 0.65080  0.78930  0.03080  Biso   1.000  H
  H13      1.0000 0.15080  0.28930  0.46920  Biso   1.000  H
  H14      1.0000 0.34920  0.71070  0.46920  Biso   1.000  H
  H15      1.0000 0.15080  0.78930  0.96920  Biso   1.000  H
  H16      1.0000 0.34920  0.21070  0.96920  Biso   1.000  H
  O25      1.0000 0.83097  0.90594  0.53713  Biso   1.000  O
  O26      1.0000 0.66903  0.09406  0.53713  Biso   1.000  O
  O27      1.0000 0.83097  0.40594  0.03713  Biso   1.000  O
  O28      1.0000 0.66903  0.59406  0.03713  Biso   1.000  O
  O29      1.0000 0.16903  0.09406  0.46287  Biso   1.000  O
  O30      1.0000 0.33097  0.90594  0.46287  Biso   1.000  O
  O31      1.0000 0.16903  0.59406  0.96287  Biso   1.000  O
  O32      1.0000 0.33097  0.40594  0.96287  Biso   1.000  O
  O33      1.0000 0.57735  0.88992  0.60607  Biso   1.000  O
  O34      1.0000 0.92265  0.11008  0.60607  Biso   1.000  O
  O35      1.0000 0.57735  0.38992  0.10607  Biso   1.000  O
  O36      1.0000 0.92265  0.61008  0.10607  Biso   1.000  O
  O37      1.0000 0.42265  0.11008  0.39393  Biso   1.000  O
  O38      1.0000 0.07735  0.88992  0.39393  Biso   1.000  O
  O39      1.0000 0.42265  0.61008  0.89393  Biso   1.000  O
  O40      1.0000 0.07735  0.38992  0.89393  Biso   1.000  O
  O41      1.0000 0.37620  0.77637  0.65682  Biso   1.000  O
  O42      1.0000 0.12380  0.22363  0.65682  Biso   1.000  O
  O43      1.0000 0.37620  0.27637  0.15682  Biso   1.000  O
  O44      1.0000 0.12380  0.72363  0.15682  Biso   1.000  O
  O45      1.0000 0.62380  0.22363  0.34318  Biso   1.000  O
  O46      1.0000 0.87620  0.77637  0.34318  Biso   1.000  O
  O47      1.0000 0.62380  0.72363  0.84318  Biso   1.000  O
  O48      1.0000 0.87620  0.27637  0.84318  Biso   1.000  O
  O49      1.0000 0.64130  0.10158  0.64358  Biso   1.000  O
  O50      1.0000 0.85870  0.89842  0.64358  Biso   1.000  O
  O51      1.0000 0.64130  0.60158  0.14358  Biso   1.000  O
  O52      1.0000 0.85870  0.39842  0.14358  Biso   1.000  O
  O53      1.0000 0.35870  0.89842  0.35642  Biso   1.000  O
  O54      1.0000 0.14130  0.10158  0.35642  Biso   1.000  O
  O55      1.0000 0.35870  0.39842  0.85642  Biso   1.000  O
  O56      1.0000 0.14130  0.60158  0.85642  Biso   1.000  O
  C9       1.0000 0.62900  0.61125  0.50975  Biso   1.000  C
  C10      1.0000 0.87100  0.38875  0.50975  Biso   1.000  C
  C11      1.0000 0.62900  0.11125  0.00975  Biso   1.000  C
  C12      1.0000 0.87100  0.88875  0.00975  Biso   1.000  C
  C13      1.0000 0.37100  0.38875  0.49025  Biso   1.000  C
  C14      1.0000 0.12900  0.61125  0.49025  Biso   1.000  C
  C15      1.0000 0.37100  0.88875  0.99025  Biso   1.000  C
  C16      1.0000 0.12900  0.11125  0.99025  Biso   1.000  C
  C17      1.0000 0.45180  0.90200  0.59523  Biso   1.000  C
  C18      1.0000 0.04820  0.09800  0.59523  Biso   1.000  C
  C19      1.0000 0.45180  0.40200  0.09523  Biso   1.000  C
  C20      1.0000 0.04820  0.59800  0.09523  Biso   1.000  C
  C21      1.0000 0.54820  0.09800  0.40477  Biso   1.000  C
  C22      1.0000 0.95180  0.90200  0.40477  Biso   1.000  C
  C23      1.0000 0.54820  0.59800  0.90477  Biso   1.000  C
  C24      1.0000 0.95180  0.40200  0.90477  Biso   1.000  C
  C25      1.0000 0.54790  0.53120  0.48682  Biso   1.000  C
  C26      1.0000 0.95210  0.46880  0.48682  Biso   1.000  C
  C27      1.0000 0.54790  0.03120  0.98682  Biso   1.000  C
  C28      1.0000 0.95210  0.96880  0.98682  Biso   1.000  C
  C29      1.0000 0.45210  0.46880  0.51318  Biso   1.000  C
  C30      1.0000 0.04790  0.53120  0.51318  Biso   1.000  C
  C31      1.0000 0.45210  0.96880  0.01318  Biso   1.000  C
  C32      1.0000 0.04790  0.03120  0.01318  Biso   1.000  C
  C33      1.0000 0.74880  0.84414  0.51448  Biso   1.000  C
  C34      1.0000 0.75120  0.15586  0.51448  Biso   1.000  C
  C35      1.0000 0.74880  0.34414  0.01448  Biso   1.000  C
  C36      1.0000 0.75120  0.65586  0.01448  Biso   1.000  C
  C37      1.0000 0.25120  0.15586  0.48552  Biso   1.000  C
  C38      1.0000 0.24880  0.84414  0.48552  Biso   1.000  C
  C39      1.0000 0.25120  0.65586  0.98552  Biso   1.000  C
  C40      1.0000 0.24880  0.34414  0.98552  Biso   1.000  C
  C41      1.0000 0.61170  0.62840  0.55586  Biso   1.000  C
  C42      1.0000 0.88830  0.37160  0.55586  Biso   1.000  C
  C43      1.0000 0.61170  0.12840  0.05586  Biso   1.000  C
  C44      1.0000 0.88830  0.87160  0.05586  Biso   1.000  C
  C45      1.0000 0.38830  0.37160  0.44414  Biso   1.000  C
  C46      1.0000 0.11170  0.62840  0.44414  Biso   1.000  C
  C47      1.0000 0.38830  0.87160  0.94414  Biso   1.000  C
  C48      1.0000 0.11170  0.12840  0.94414  Biso   1.000  C
  H17      1.0000 0.66340  0.68170  0.57050  Biso   1.000  H
  H18      1.0000 0.83660  0.31830  0.57050  Biso   1.000  H
  H19      1.0000 0.66340  0.18170  0.07050  Biso   1.000  H
  H20      1.0000 0.83660  0.81830  0.07050  Biso   1.000  H
  H21      1.0000 0.33660  0.31830  0.42950  Biso   1.000  H
  H22      1.0000 0.16340  0.68170  0.42950  Biso   1.000  H
  H23      1.0000 0.33660  0.81830  0.92950  Biso   1.000  H
  H24      1.0000 0.16340  0.18170  0.92950  Biso   1.000  H
  C49      1.0000 0.56220  0.51260  0.43927  Biso   1.000  C
  C50      1.0000 0.93780  0.48740  0.43927  Biso   1.000  C
  C51      1.0000 0.56220  0.01260  0.93927  Biso   1.000  C
  C52      1.0000 0.93780  0.98740  0.93927  Biso   1.000  C
  C53      1.0000 0.43780  0.48740  0.56073  Biso   1.000  C
  C54      1.0000 0.06220  0.51260  0.56073  Biso   1.000  C
  C55      1.0000 0.43780  0.98740  0.06073  Biso   1.000  C
  C56      1.0000 0.06220  0.01260  0.06073  Biso   1.000  C
  H25      1.0000 0.62480  0.55340  0.42180  Biso   1.000  H
  H26      1.0000 0.87520  0.44660  0.42180  Biso   1.000  H
  H27      1.0000 0.62480  0.05340  0.92180  Biso   1.000  H
  H28      1.0000 0.87520  0.94660  0.92180  Biso   1.000  H
  H29      1.0000 0.37520  0.44660  0.57820  Biso   1.000  H
  H30      1.0000 0.12480  0.55340  0.57820  Biso   1.000  H
  H31      1.0000 0.37520  0.94660  0.07820  Biso   1.000  H
  H32      1.0000 0.12480  0.05340  0.07820  Biso   1.000  H
  C57      1.0000 0.51680  0.56600  0.58098  Biso   1.000  C
  C58      1.0000 0.98320  0.43400  0.58098  Biso   1.000  C
  C59      1.0000 0.51680  0.06600  0.08098  Biso   1.000  C
  C60      1.0000 0.98320  0.93400  0.08098  Biso   1.000  C
  C61      1.0000 0.48320  0.43400  0.41902  Biso   1.000  C
  C62      1.0000 0.01680  0.56600  0.41902  Biso   1.000  C
  C63      1.0000 0.48320  0.93400  0.91902  Biso   1.000  C
  C64      1.0000 0.01680  0.06600  0.91902  Biso   1.000  C
  H33      1.0000 0.50670  0.57810  0.61240  Biso   1.000  H
  H34      1.0000 0.99330  0.42190  0.61240  Biso   1.000  H
  H35      1.0000 0.50670  0.07810  0.11240  Biso   1.000  H
  H36      1.0000 0.99330  0.92190  0.11240  Biso   1.000  H
  H37      1.0000 0.49330  0.42190  0.38760  Biso   1.000  H
  H38      1.0000 0.00670  0.57810  0.38760  Biso   1.000  H
  H39      1.0000 0.49330  0.92190  0.88760  Biso   1.000  H
  H40      1.0000 0.00670  0.07810  0.88760  Biso   1.000  H
  C65      1.0000 0.46580  0.73490  0.72963  Biso   1.000  C
  C66      1.0000 0.03420  0.26510  0.72963  Biso   1.000  C
  C67      1.0000 0.46580  0.23490  0.22963  Biso   1.000  C
  C68      1.0000 0.03420  0.76510  0.22963  Biso   1.000  C
  C69      1.0000 0.53420  0.26510  0.27037  Biso   1.000  C
  C70      1.0000 0.96580  0.73490  0.27037  Biso   1.000  C
  C71      1.0000 0.53420  0.76510  0.77037  Biso   1.000  C
  C72      1.0000 0.96580  0.23490  0.77037  Biso   1.000  C
  C73      1.0000 0.33640  0.84740  0.62237  Biso   1.000  C
  C74      1.0000 0.16360  0.15260  0.62237  Biso   1.000  C
  C75      1.0000 0.33640  0.34740  0.12237  Biso   1.000  C
  C76      1.0000 0.16360  0.65260  0.12237  Biso   1.000  C
  C77      1.0000 0.66360  0.15260  0.37763  Biso   1.000  C
  C78      1.0000 0.83640  0.84740  0.37763  Biso   1.000  C
  C79      1.0000 0.66360  0.65260  0.87763  Biso   1.000  C
  C80      1.0000 0.83640  0.34740  0.87763  Biso   1.000  C
  H41      1.0000 0.28140  0.90030  0.63700  Biso   1.000  H
  H42      1.0000 0.21860  0.09970  0.63700  Biso   1.000  H
  H43      1.0000 0.28140  0.40030  0.13700  Biso   1.000  H
  H44      1.0000 0.21860  0.59970  0.13700  Biso   1.000  H
  H45      1.0000 0.71860  0.09970  0.36300  Biso   1.000  H
  H46      1.0000 0.78140  0.90030  0.36300  Biso   1.000  H
  H47      1.0000 0.71860  0.59970  0.86300  Biso   1.000  H
  H48      1.0000 0.78140  0.40030  0.86300  Biso   1.000  H
  H49      1.0000 0.27520  0.81010  0.60080  Biso   1.000  H
  H50      1.0000 0.22480  0.18990  0.60080  Biso   1.000  H
  H51      1.0000 0.27520  0.31010  0.10080  Biso   1.000  H
  H52      1.0000 0.22480  0.68990  0.10080  Biso   1.000  H
  H53      1.0000 0.72480  0.18990  0.39920  Biso   1.000  H
  H54      1.0000 0.77520  0.81010  0.39920  Biso   1.000  H
  H55      1.0000 0.72480  0.68990  0.89920  Biso   1.000  H
  H56      1.0000 0.77520  0.31010  0.89920  Biso   1.000  H
  C81      1.0000 0.43680  0.81410  0.69633  Biso   1.000  C
  C82      1.0000 0.06320  0.18590  0.69633  Biso   1.000  C
  C83      1.0000 0.43680  0.31410  0.19633  Biso   1.000  C
  C84      1.0000 0.06320  0.68590  0.19633  Biso   1.000  C
  C85      1.0000 0.56320  0.18590  0.30367  Biso   1.000  C
  C86      1.0000 0.93680  0.81410  0.30367  Biso   1.000  C
  C87      1.0000 0.56320  0.68590  0.80367  Biso   1.000  C
  C88      1.0000 0.93680  0.31410  0.80367  Biso   1.000  C
  C89      1.0000 0.47280  0.91610  0.70481  Biso   1.000  C
  C90      1.0000 0.02720  0.08390  0.70481  Biso   1.000  C
  C91      1.0000 0.47280  0.41610  0.20481  Biso   1.000  C
  C92      1.0000 0.02720  0.58390  0.20481  Biso   1.000  C
  C93      1.0000 0.52720  0.08390  0.29519  Biso   1.000  C
  C94      1.0000 0.97280  0.91610  0.29519  Biso   1.000  C
  C95      1.0000 0.52720  0.58390  0.79519  Biso   1.000  C
  C96      1.0000 0.97280  0.41610  0.79519  Biso   1.000  C
  H57      1.0000 0.45100  0.96730  0.68350  Biso   1.000  H
  H58      1.0000 0.04900  0.03270  0.68350  Biso   1.000  H
  H59      1.0000 0.45100  0.46730  0.18350  Biso   1.000  H
  H60      1.0000 0.04900  0.53270  0.18350  Biso   1.000  H
  H61      1.0000 0.54900  0.03270  0.31650  Biso   1.000  H
  H62      1.0000 0.95100  0.96730  0.31650  Biso   1.000  H
  H63      1.0000 0.54900  0.53270  0.81650  Biso   1.000  H
  H64      1.0000 0.95100  0.46730  0.81650  Biso   1.000  H
  C97      1.0000 0.68920  0.18440  0.65931  Biso   1.000  C
  C98      1.0000 0.81080  0.81560  0.65931  Biso   1.000  C
  C99      1.0000 0.68920  0.68440  0.15931  Biso   1.000  C
  C100     1.0000 0.81080  0.31560  0.15931  Biso   1.000  C
  C101     1.0000 0.31080  0.81560  0.34069  Biso   1.000  C
  C102     1.0000 0.18920  0.18440  0.34069  Biso   1.000  C
  C103     1.0000 0.31080  0.31560  0.84069  Biso   1.000  C
  C104     1.0000 0.18920  0.68440  0.84069  Biso   1.000  C
  H65      1.0000 0.78620  0.19000  0.66290  Biso   1.000  H
  H66      1.0000 0.71380  0.81000  0.66290  Biso   1.000  H
  H67      1.0000 0.78620  0.69000  0.16290  Biso   1.000  H
  H68      1.0000 0.71380  0.31000  0.16290  Biso   1.000  H
  H69      1.0000 0.21380  0.81000  0.33710  Biso   1.000  H
  H70      1.0000 0.28620  0.19000  0.33710  Biso   1.000  H
  H71      1.0000 0.21380  0.31000  0.83710  Biso   1.000  H
  H72      1.0000 0.28620  0.69000  0.83710  Biso   1.000  H
  C105     1.0000 0.42550  0.62850  0.72171  Biso   1.000  C
  C106     1.0000 0.07450  0.37150  0.72171  Biso   1.000  C
  C107     1.0000 0.42550  0.12850  0.22171  Biso   1.000  C
  C108     1.0000 0.07450  0.87150  0.22171  Biso   1.000  C
  C109     1.0000 0.57450  0.37150  0.27829  Biso   1.000  C
  C110     1.0000 0.92550  0.62850  0.27829  Biso   1.000  C
  C111     1.0000 0.57450  0.87150  0.77829  Biso   1.000  C
  C112     1.0000 0.92550  0.12850  0.77829  Biso   1.000  C
  H73      1.0000 0.37850  0.60860  0.69480  Biso   1.000  H
  H74      1.0000 0.12150  0.39140  0.69480  Biso   1.000  H
  H75      1.0000 0.37850  0.10860  0.19480  Biso   1.000  H
  H76      1.0000 0.12150  0.89140  0.19480  Biso   1.000  H
  H77      1.0000 0.62150  0.39140  0.30520  Biso   1.000  H
  H78      1.0000 0.87850  0.60860  0.30520  Biso   1.000  H
  H79      1.0000 0.62150  0.89140  0.80520  Biso   1.000  H
  H80      1.0000 0.87850  0.10860  0.80520  Biso   1.000  H
  C113     1.0000 0.54320  0.94350  0.74602  Biso   1.000  C
  C114     1.0000 0.95680  0.05650  0.74602  Biso   1.000  C
  C115     1.0000 0.54320  0.44350  0.24602  Biso   1.000  C
  C116     1.0000 0.95680  0.55650  0.24602  Biso   1.000  C
  C117     1.0000 0.45680  0.05650  0.25398  Biso   1.000  C
  C118     1.0000 0.04320  0.94350  0.25398  Biso   1.000  C
  C119     1.0000 0.45680  0.55650  0.75398  Biso   1.000  C
  C120     1.0000 0.04320  0.44350  0.75398  Biso   1.000  C
  H81      1.0000 0.56900  0.01320  0.75130  Biso   1.000  H
  H82      1.0000 0.93100  0.98680  0.75130  Biso   1.000  H
  H83      1.0000 0.56900  0.51320  0.25130  Biso   1.000  H
  H84      1.0000 0.93100  0.48680  0.25130  Biso   1.000  H
  H85      1.0000 0.43100  0.98680  0.24870  Biso   1.000  H
  H86      1.0000 0.06900  0.01320  0.24870  Biso   1.000  H
  H87      1.0000 0.43100  0.48680  0.74870  Biso   1.000  H
  H88      1.0000 0.06900  0.51320  0.74870  Biso   1.000  H
  N1       1.0000 0.62040  0.26430  0.67134  Biso   1.000  N
  N2       1.0000 0.87960  0.73570  0.67134  Biso   1.000  N
  N3       1.0000 0.62040  0.76430  0.17134  Biso   1.000  N
  N4       1.0000 0.87960  0.23570  0.17134  Biso   1.000  N
  N5       1.0000 0.37960  0.73570  0.32866  Biso   1.000  N
  N6       1.0000 0.12040  0.26430  0.32866  Biso   1.000  N
  N7       1.0000 0.37960  0.23570  0.82866  Biso   1.000  N
  N8       1.0000 0.12040  0.76430  0.82866  Biso   1.000  N
  C121     1.0000 0.68470  0.36120  0.68710  Biso   1.000  C
  C122     1.0000 0.81530  0.63880  0.68710  Biso   1.000  C
  C123     1.0000 0.68470  0.86120  0.18710  Biso   1.000  C
  C124     1.0000 0.81530  0.13880  0.18710  Biso   1.000  C
  C125     1.0000 0.31530  0.63880  0.31290  Biso   1.000  C
  C126     1.0000 0.18470  0.36120  0.31290  Biso   1.000  C
  C127     1.0000 0.31530  0.13880  0.81290  Biso   1.000  C
  C128     1.0000 0.18470  0.86120  0.81290  Biso   1.000  C
  H89      1.0000 0.61300  0.40930  0.69410  Biso   1.000  H
  H90      1.0000 0.88700  0.59070  0.69410  Biso   1.000  H
  H91      1.0000 0.61300  0.90930  0.19410  Biso   1.000  H
  H92      1.0000 0.88700  0.09070  0.19410  Biso   1.000  H
  H93      1.0000 0.38700  0.59070  0.30590  Biso   1.000  H
  H94      1.0000 0.11300  0.40930  0.30590  Biso   1.000  H
  H95      1.0000 0.38700  0.09070  0.80590  Biso   1.000  H
  H96      1.0000 0.11300  0.90930  0.80590  Biso   1.000  H
  H97      1.0000 0.73920  0.34890  0.71420  Biso   1.000  H
  H98      1.0000 0.76080  0.65110  0.71420  Biso   1.000  H
  H99      1.0000 0.73920  0.84890  0.21420  Biso   1.000  H
  H100     1.0000 0.76080  0.15110  0.21420  Biso   1.000  H
  H101     1.0000 0.26080  0.65110  0.28580  Biso   1.000  H
  H102     1.0000 0.23920  0.34890  0.28580  Biso   1.000  H
  H103     1.0000 0.26080  0.15110  0.78580  Biso   1.000  H
  H104     1.0000 0.23920  0.84890  0.78580  Biso   1.000  H
  H105     1.0000 0.74470  0.39000  0.66330  Biso   1.000  H
  H106     1.0000 0.75530  0.61000  0.66330  Biso   1.000  H
  H107     1.0000 0.74470  0.89000  0.16330  Biso   1.000  H
  H108     1.0000 0.75530  0.11000  0.16330  Biso   1.000  H
  H109     1.0000 0.25530  0.61000  0.33670  Biso   1.000  H
  H110     1.0000 0.24470  0.39000  0.33670  Biso   1.000  H
  H111     1.0000 0.25530  0.11000  0.83670  Biso   1.000  H
  H112     1.0000 0.24470  0.89000  0.83670  Biso   1.000  H
  C129     1.0000 0.47460  0.26320  0.66440  Biso   1.000  C
  C130     1.0000 0.02540  0.73680  0.66440  Biso   1.000  C
  C131     1.0000 0.47460  0.76320  0.16440  Biso   1.000  C
  C132     1.0000 0.02540  0.23680  0.16440  Biso   1.000  C
  C133     1.0000 0.52540  0.73680  0.33560  Biso   1.000  C
  C134     1.0000 0.97460  0.26320  0.33560  Biso   1.000  C
  C135     1.0000 0.52540  0.23680  0.83560  Biso   1.000  C
  C136     1.0000 0.97460  0.76320  0.83560  Biso   1.000  C
  H113     1.0000 0.43850  0.32780  0.67510  Biso   1.000  H
  H114     1.0000 0.06150  0.67220  0.67510  Biso   1.000  H
  H115     1.0000 0.43850  0.82780  0.17510  Biso   1.000  H
  H116     1.0000 0.06150  0.17220  0.17510  Biso   1.000  H
  H117     1.0000 0.56150  0.67220  0.32490  Biso   1.000  H
  H118     1.0000 0.93850  0.32780  0.32490  Biso   1.000  H
  H119     1.0000 0.56150  0.17220  0.82490  Biso   1.000  H
  H120     1.0000 0.93850  0.82780  0.82490  Biso   1.000  H
  H121     1.0000 0.45450  0.25490  0.63220  Biso   1.000  H
  H122     1.0000 0.04550  0.74510  0.63220  Biso   1.000  H
  H123     1.0000 0.45450  0.75490  0.13220  Biso   1.000  H
  H124     1.0000 0.04550  0.24510  0.13220  Biso   1.000  H
  H125     1.0000 0.54550  0.74510  0.36780  Biso   1.000  H
  H126     1.0000 0.95450  0.25490  0.36780  Biso   1.000  H
  H127     1.0000 0.54550  0.24510  0.86780  Biso   1.000  H
  H128     1.0000 0.95450  0.75490  0.86780  Biso   1.000  H
  H129     1.0000 0.43110  0.20630  0.68130  Biso   1.000  H
  H130     1.0000 0.06890  0.79370  0.68130  Biso   1.000  H
  H131     1.0000 0.43110  0.70630  0.18130  Biso   1.000  H
  H132     1.0000 0.06890  0.29370  0.18130  Biso   1.000  H
  H133     1.0000 0.56890  0.79370  0.31870  Biso   1.000  H
  H134     1.0000 0.93110  0.20630  0.31870  Biso   1.000  H
  H135     1.0000 0.56890  0.29370  0.81870  Biso   1.000  H
  H136     1.0000 0.93110  0.70630  0.81870  Biso   1.000  H
