data_image0
_cell_length_a       8.866
_cell_length_b       9.0619
_cell_length_c       12.1365
_cell_angle_alpha    91.656
_cell_angle_beta     97.796
_cell_angle_gamma    101.32

_symmetry_space_group_name_H-M    "P 1"
_symmetry_int_tables_number       1

loop_
  _symmetry_equiv_pos_as_xyz
  'x, y, z'

loop_
  _atom_site_label
  _atom_site_occupancy
  _atom_site_fract_x
  _atom_site_fract_y
  _atom_site_fract_z
  _atom_site_thermal_displace_type
  _atom_site_B_iso_or_equiv
  _atom_site_type_symbol
  C1       1.0000 0.48320  0.21270  0.59027  Biso   1.000  C
  C2       1.0000 0.51680  0.78730  0.40973  Biso   1.000  C
  C3       1.0000 0.41290  0.19390  0.47916  Biso   1.000  C
  C4       1.0000 0.58710  0.80610  0.52084  Biso   1.000  C
  H1       1.0000 0.30908  0.19242  0.45261  Biso   1.000  H
  H2       1.0000 0.69092  0.80758  0.54739  Biso   1.000  H
  C5       1.0000 0.52730  0.17830  0.41738  Biso   1.000  C
  C6       1.0000 0.47270  0.82170  0.58262  Biso   1.000  C
  C7       1.0000 0.52020  0.15790  0.29400  Biso   1.000  C
  C8       1.0000 0.47980  0.84210  0.70600  Biso   1.000  C
  H3       1.0000 0.58232  0.08682  0.27741  Biso   1.000  H
  H4       1.0000 0.41768  0.91318  0.72259  Biso   1.000  H
  H5       1.0000 0.55919  0.25292  0.26462  Biso   1.000  H
  H6       1.0000 0.44081  0.74708  0.73538  Biso   1.000  H
  H7       1.0000 0.41435  0.12100  0.26064  Biso   1.000  H
  H8       1.0000 0.58565  0.87900  0.73936  Biso   1.000  H
  C9       1.0000 0.41340  0.23820  0.69190  Biso   1.000  C
  C10      1.0000 0.58660  0.76180  0.30810  Biso   1.000  C
  H9       1.0000 0.48815  0.23654  0.75674  Biso   1.000  H
  H10      1.0000 0.51185  0.76346  0.24326  Biso   1.000  H
  H11      1.0000 0.32353  0.16015  0.69422  Biso   1.000  H
  H12      1.0000 0.67647  0.83985  0.30578  Biso   1.000  H
  H13      1.0000 0.38335  0.33437  0.69048  Biso   1.000  H
  H14      1.0000 0.61665  0.66563  0.30952  Biso   1.000  H
  C11      1.0000 0.78540  0.51060  0.83650  Biso   1.000  C
  C12      1.0000 0.21460  0.48940  0.16350  Biso   1.000  C
  C13      1.0000 0.78740  0.58730  0.93730  Biso   1.000  C
  C14      1.0000 0.21260  0.41270  0.06270  Biso   1.000  C
  H15      1.0000 0.78579  0.68890  0.94849  Biso   1.000  H
  H16      1.0000 0.21421  0.31110  0.05151  Biso   1.000  H
  C15      1.0000 0.79240  0.48340  0.01750  Biso   1.000  C
  C16      1.0000 0.20760  0.51660  0.98250  Biso   1.000  C
  C17      1.0000 0.78220  0.56930  0.72250  Biso   1.000  C
  C18      1.0000 0.21780  0.43070  0.27750  Biso   1.000  C
  H17      1.0000 0.85025  0.52517  0.68259  Biso   1.000  H
  H18      1.0000 0.14975  0.47483  0.31741  Biso   1.000  H
  H19      1.0000 0.81624  0.67695  0.72853  Biso   1.000  H
  H20      1.0000 0.18376  0.32305  0.27147  Biso   1.000  H
  H21      1.0000 0.67823  0.54361  0.68330  Biso   1.000  H
  H22      1.0000 0.32177  0.45639  0.31670  Biso   1.000  H
  C19      1.0000 0.79490  0.50180  0.14020  Biso   1.000  C
  C20      1.0000 0.20510  0.49820  0.85980  Biso   1.000  C
  H23      1.0000 0.86622  0.44612  0.17756  Biso   1.000  H
  H24      1.0000 0.13378  0.55388  0.82244  Biso   1.000  H
  H25      1.0000 0.69260  0.46455  0.15819  Biso   1.000  H
  H26      1.0000 0.30740  0.53545  0.84181  Biso   1.000  H
  H27      1.0000 0.82731  0.60661  0.16378  Biso   1.000  H
  H28      1.0000 0.17269  0.39339  0.83622  Biso   1.000  H
  C21      1.0000 0.79950  0.20570  0.00957  Biso   1.000  C
  C22      1.0000 0.20050  0.79430  0.99043  Biso   1.000  C
  H29      1.0000 0.84665  0.22168  0.08702  Biso   1.000  H
  H30      1.0000 0.15335  0.77832  0.91298  Biso   1.000  H
  H31      1.0000 0.86579  0.15661  0.96995  Biso   1.000  H
  H32      1.0000 0.13421  0.84339  0.03005  Biso   1.000  H
  C23      1.0000 0.64250  0.10150  0.00286  Biso   1.000  C
  C24      1.0000 0.35750  0.89850  0.99714  Biso   1.000  C
  C25      1.0000 0.50330  0.15120  0.98700  Biso   1.000  C
  C26      1.0000 0.49670  0.84880  0.01300  Biso   1.000  C
  H33      1.0000 0.50399  0.25291  0.97812  Biso   1.000  H
  H34      1.0000 0.49601  0.74709  0.02188  Biso   1.000  H
  C27      1.0000 0.63730  0.94970  0.01588  Biso   1.000  C
  C28      1.0000 0.36270  0.05030  0.98412  Biso   1.000  C
  H35      1.0000 0.72960  0.91440  0.02673  Biso   1.000  H
  H36      1.0000 0.27040  0.08560  0.97327  Biso   1.000  H
  C29      1.0000 0.05990  0.38120  0.54331  Biso   1.000  C
  C30      1.0000 0.94010  0.61880  0.45669  Biso   1.000  C
  H37      1.0000 0.10106  0.30190  0.57343  Biso   1.000  H
  H38      1.0000 0.89894  0.69810  0.42657  Biso   1.000  H
  C31      1.0000 0.91110  0.35280  0.48458  Biso   1.000  C
  C32      1.0000 0.08890  0.64720  0.51542  Biso   1.000  C
  C33      1.0000 0.85160  0.47340  0.44220  Biso   1.000  C
  C34      1.0000 0.14840  0.52660  0.55780  Biso   1.000  C
  H39      1.0000 0.75121  0.45665  0.40366  Biso   1.000  H
  H40      1.0000 0.24879  0.54335  0.59634  Biso   1.000  H
  C35      1.0000 0.81710  0.19330  0.46784  Biso   1.000  C
  C36      1.0000 0.18290  0.80670  0.53216  Biso   1.000  C
  H41      1.0000 0.81532  0.15591  0.39186  Biso   1.000  H
  H42      1.0000 0.18468  0.84409  0.60814  Biso   1.000  H
  H43      1.0000 0.86660  0.12902  0.51732  Biso   1.000  H
  H44      1.0000 0.13340  0.87098  0.48268  Biso   1.000  H
  N1       1.0000 0.63419  0.20716  0.59710  Biso   1.000  N
  N2       1.0000 0.36581  0.79284  0.40290  Biso   1.000  N
  N3       1.0000 0.65900  0.18532  0.48961  Biso   1.000  N
  N4       1.0000 0.34100  0.81468  0.51039  Biso   1.000  N
  N5       1.0000 0.78950  0.36596  0.85213  Biso   1.000  N
  N6       1.0000 0.21050  0.63404  0.14787  Biso   1.000  N
  N7       1.0000 0.79420  0.35143  0.96388  Biso   1.000  N
  N8       1.0000 0.20580  0.64857  0.03612  Biso   1.000  N
  Cu1      1.0000 0.78824  0.20848  0.73363  Biso   1.000  Cu
  Cu2      1.0000 0.21176  0.79152  0.26637  Biso   1.000  Cu
  I1       1.0000 0.97040  0.02671  0.75834  Biso   1.000  I
  I2       1.0000 0.02960  0.97329  0.24166  Biso   1.000  I
