data_image0
_cell_length_a       13.624
_cell_length_b       14.803
_cell_length_c       27.041
_cell_angle_alpha    90
_cell_angle_beta     91.89
_cell_angle_gamma    90

_symmetry_space_group_name_H-M    "P 1"
_symmetry_int_tables_number       1

loop_
  _symmetry_equiv_pos_as_xyz
  'x, y, z'

loop_
  _atom_site_label
  _atom_site_occupancy
  _atom_site_fract_x
  _atom_site_fract_y
  _atom_site_fract_z
  _atom_site_thermal_displace_type
  _atom_site_B_iso_or_equiv
  _atom_site_type_symbol
  Mn1      1.0000 0.66959  0.20653  0.35112  Biso   1.000  Mn
  Mn2      1.0000 0.33041  0.79347  0.64888  Biso   1.000  Mn
  Mn3      1.0000 0.83041  0.70653  0.14888  Biso   1.000  Mn
  Mn4      1.0000 0.16959  0.29347  0.85112  Biso   1.000  Mn
  Mn5      1.0000 0.86186  0.24918  0.28601  Biso   1.000  Mn
  Mn6      1.0000 0.13814  0.75082  0.71399  Biso   1.000  Mn
  Mn7      1.0000 0.63814  0.74918  0.21399  Biso   1.000  Mn
  Mn8      1.0000 0.36186  0.25082  0.78601  Biso   1.000  Mn
  Mn9      1.0000 0.66221  0.17273  0.23193  Biso   1.000  Mn
  Mn10     1.0000 0.33779  0.82727  0.76807  Biso   1.000  Mn
  Mn11     1.0000 0.83779  0.67273  0.26807  Biso   1.000  Mn
  Mn12     1.0000 0.16221  0.32727  0.73193  Biso   1.000  Mn
  O1       1.0000 0.73210  0.20690  0.29005  Biso   1.000  O
  O2       1.0000 0.26790  0.79310  0.70995  Biso   1.000  O
  O3       1.0000 0.76790  0.70690  0.20995  Biso   1.000  O
  O4       1.0000 0.23210  0.29310  0.79005  Biso   1.000  O
  O5       1.0000 0.61520  0.20680  0.41420  Biso   1.000  O
  O6       1.0000 0.38480  0.79320  0.58580  Biso   1.000  O
  O7       1.0000 0.88480  0.70680  0.08580  Biso   1.000  O
  O8       1.0000 0.11520  0.29320  0.91420  Biso   1.000  O
  O9       1.0000 0.87570  0.26440  0.35645  Biso   1.000  O
  O10      1.0000 0.12430  0.73560  0.64355  Biso   1.000  O
  O11      1.0000 0.62430  0.76440  0.14355  Biso   1.000  O
  O12      1.0000 0.37570  0.23560  0.85645  Biso   1.000  O
  O13      1.0000 0.99330  0.27990  0.27960  Biso   1.000  O
  O14      1.0000 0.00670  0.72010  0.72040  Biso   1.000  O
  O15      1.0000 0.50670  0.77990  0.22040  Biso   1.000  O
  O16      1.0000 0.49330  0.22010  0.77960  Biso   1.000  O
  O17      1.0000 0.77620  0.18710  0.19089  Biso   1.000  O
  O18      1.0000 0.22380  0.81290  0.80911  Biso   1.000  O
  O19      1.0000 0.72380  0.68710  0.30911  Biso   1.000  O
  O20      1.0000 0.27620  0.31290  0.69089  Biso   1.000  O
  O21      1.0000 0.58820  0.13860  0.17602  Biso   1.000  O
  O22      1.0000 0.41180  0.86140  0.82398  Biso   1.000  O
  O23      1.0000 0.91180  0.63860  0.32398  Biso   1.000  O
  O24      1.0000 0.08820  0.36140  0.67602  Biso   1.000  O
  O25      1.0000 0.55330  0.15190  0.32285  Biso   1.000  O
  O26      1.0000 0.44670  0.84810  0.67715  Biso   1.000  O
  O27      1.0000 0.94670  0.65190  0.17715  Biso   1.000  O
  O28      1.0000 0.05330  0.34810  0.82285  Biso   1.000  O
  O29      1.0000 0.74320  0.07300  0.37128  Biso   1.000  O
  O30      1.0000 0.25680  0.92700  0.62872  Biso   1.000  O
  O31      1.0000 0.75680  0.57300  0.12872  Biso   1.000  O
  O32      1.0000 0.24320  0.42700  0.87128  Biso   1.000  O
  H1       1.0000 0.81130  0.06800  0.37310  Biso   1.000  H
  H2       1.0000 0.18870  0.93200  0.62690  Biso   1.000  H
  H3       1.0000 0.68870  0.56800  0.12690  Biso   1.000  H
  H4       1.0000 0.31130  0.43200  0.87310  Biso   1.000  H
  O33      1.0000 0.60630  0.34600  0.33643  Biso   1.000  O
  O34      1.0000 0.39370  0.65400  0.66357  Biso   1.000  O
  O35      1.0000 0.89370  0.84600  0.16357  Biso   1.000  O
  O36      1.0000 0.10630  0.15400  0.83643  Biso   1.000  O
  H5       1.0000 0.64990  0.39410  0.33470  Biso   1.000  H
  H6       1.0000 0.35010  0.60590  0.66530  Biso   1.000  H
  H7       1.0000 0.85010  0.89410  0.16530  Biso   1.000  H
  H8       1.0000 0.14990  0.10590  0.83470  Biso   1.000  H
  O37      1.0000 0.79510  0.38540  0.27146  Biso   1.000  O
  O38      1.0000 0.20490  0.61460  0.72854  Biso   1.000  O
  O39      1.0000 0.70490  0.88540  0.22854  Biso   1.000  O
  O40      1.0000 0.29510  0.11460  0.77146  Biso   1.000  O
  O41      1.0000 0.89970  0.09710  0.28575  Biso   1.000  O
  O42      1.0000 0.10030  0.90290  0.71425  Biso   1.000  O
  O43      1.0000 0.60030  0.59710  0.21425  Biso   1.000  O
  O44      1.0000 0.39970  0.40290  0.78575  Biso   1.000  O
  H9       1.0000 0.86100  0.05730  0.30320  Biso   1.000  H
  H10      1.0000 0.13900  0.94270  0.69680  Biso   1.000  H
  H11      1.0000 0.63900  0.55730  0.19680  Biso   1.000  H
  H12      1.0000 0.36100  0.44270  0.80320  Biso   1.000  H
  O45      1.0000 0.62780  0.32440  0.22197  Biso   1.000  O
  O46      1.0000 0.37220  0.67560  0.77803  Biso   1.000  O
  O47      1.0000 0.87220  0.82440  0.27803  Biso   1.000  O
  O48      1.0000 0.12780  0.17560  0.72197  Biso   1.000  O
  H13      1.0000 0.61250  0.35940  0.24920  Biso   1.000  H
  H14      1.0000 0.38750  0.64060  0.75080  Biso   1.000  H
  H15      1.0000 0.88750  0.85940  0.25080  Biso   1.000  H
  H16      1.0000 0.11250  0.14060  0.74920  Biso   1.000  H
  O49      1.0000 0.71400  0.03240  0.24470  Biso   1.000  O
  O50      1.0000 0.28600  0.96760  0.75530  Biso   1.000  O
  O51      1.0000 0.78600  0.53240  0.25530  Biso   1.000  O
  O52      1.0000 0.21400  0.46760  0.74470  Biso   1.000  O
  N1       1.0000 0.78710  0.27120  0.37992  Biso   1.000  N
  N2       1.0000 0.21290  0.72880  0.62008  Biso   1.000  N
  N3       1.0000 0.71290  0.77120  0.12008  Biso   1.000  N
  N4       1.0000 0.28710  0.22880  0.87992  Biso   1.000  N
  N5       1.0000 0.85070  0.23900  0.21205  Biso   1.000  N
  N6       1.0000 0.14930  0.76100  0.78795  Biso   1.000  N
  N7       1.0000 0.64930  0.73900  0.28795  Biso   1.000  N
  N8       1.0000 0.35070  0.26100  0.71205  Biso   1.000  N
  N9       1.0000 0.54230  0.16040  0.27235  Biso   1.000  N
  N10      1.0000 0.45770  0.83960  0.72765  Biso   1.000  N
  N11      1.0000 0.95770  0.66040  0.22765  Biso   1.000  N
  N12      1.0000 0.04230  0.33960  0.77235  Biso   1.000  N
  C1       1.0000 0.61990  0.27440  0.44704  Biso   1.000  C
  C2       1.0000 0.38010  0.72560  0.55296  Biso   1.000  C
  C3       1.0000 0.88010  0.77440  0.05296  Biso   1.000  C
  C4       1.0000 0.11990  0.22560  0.94704  Biso   1.000  C
  C5       1.0000 0.54420  0.28600  0.48136  Biso   1.000  C
  C6       1.0000 0.45580  0.71400  0.51864  Biso   1.000  C
  C7       1.0000 0.95580  0.78600  0.01864  Biso   1.000  C
  C8       1.0000 0.04420  0.21400  0.98136  Biso   1.000  C
  C9       1.0000 0.55300  0.35870  0.51411  Biso   1.000  C
  C10      1.0000 0.44700  0.64130  0.48589  Biso   1.000  C
  C11      1.0000 0.94700  0.85870  0.98589  Biso   1.000  C
  C12      1.0000 0.05300  0.14130  0.01411  Biso   1.000  C
  H17      1.0000 0.50240  0.36820  0.53580  Biso   1.000  H
  H18      1.0000 0.49760  0.63180  0.46420  Biso   1.000  H
  H19      1.0000 0.99760  0.86820  0.96420  Biso   1.000  H
  H20      1.0000 0.00240  0.13180  0.03580  Biso   1.000  H
  C13      1.0000 0.63230  0.41760  0.51641  Biso   1.000  C
  C14      1.0000 0.36770  0.58240  0.48359  Biso   1.000  C
  C15      1.0000 0.86770  0.91760  0.98359  Biso   1.000  C
  C16      1.0000 0.13230  0.08240  0.01641  Biso   1.000  C
  C17      1.0000 0.70720  0.40310  0.48472  Biso   1.000  C
  C18      1.0000 0.29280  0.59690  0.51528  Biso   1.000  C
  C19      1.0000 0.79280  0.90310  0.01528  Biso   1.000  C
  C20      1.0000 0.20720  0.09690  0.98472  Biso   1.000  C
  H21      1.0000 0.76180  0.44070  0.48630  Biso   1.000  H
  H22      1.0000 0.23820  0.55930  0.51370  Biso   1.000  H
  H23      1.0000 0.73820  0.94070  0.01370  Biso   1.000  H
  H24      1.0000 0.26180  0.05930  0.98630  Biso   1.000  H
  C21      1.0000 0.70300  0.33200  0.44966  Biso   1.000  C
  C22      1.0000 0.29700  0.66800  0.55034  Biso   1.000  C
  C23      1.0000 0.79700  0.83200  0.05034  Biso   1.000  C
  C24      1.0000 0.20300  0.16800  0.94966  Biso   1.000  C
  C25      1.0000 0.78740  0.32140  0.41877  Biso   1.000  C
  C26      1.0000 0.21260  0.67860  0.58123  Biso   1.000  C
  C27      1.0000 0.71260  0.82140  0.08123  Biso   1.000  C
  C28      1.0000 0.28740  0.17860  0.91877  Biso   1.000  C
  H25      1.0000 0.84460  0.35260  0.42750  Biso   1.000  H
  H26      1.0000 0.15540  0.64740  0.57250  Biso   1.000  H
  H27      1.0000 0.65540  0.85260  0.07250  Biso   1.000  H
  H28      1.0000 0.34460  0.14740  0.92750  Biso   1.000  H
  C29      1.0000 0.45740  0.21980  0.48220  Biso   1.000  C
  C30      1.0000 0.54260  0.78020  0.51780  Biso   1.000  C
  C31      1.0000 0.04260  0.71980  0.01780  Biso   1.000  C
  C32      1.0000 0.95740  0.28020  0.98220  Biso   1.000  C
  C33      1.0000 0.39760  0.22420  0.43310  Biso   1.000  C
  C34      1.0000 0.60240  0.77580  0.56690  Biso   1.000  C
  C35      1.0000 0.10240  0.72420  0.06690  Biso   1.000  C
  C36      1.0000 0.89760  0.27580  0.93310  Biso   1.000  C
  H29      1.0000 0.37240  0.28430  0.42830  Biso   1.000  H
  H30      1.0000 0.62760  0.71570  0.57170  Biso   1.000  H
  H31      1.0000 0.12760  0.78430  0.07170  Biso   1.000  H
  H32      1.0000 0.87240  0.21570  0.92830  Biso   1.000  H
  H33      1.0000 0.34400  0.18230  0.43400  Biso   1.000  H
  H34      1.0000 0.65600  0.81770  0.56600  Biso   1.000  H
  H35      1.0000 0.15600  0.68230  0.06600  Biso   1.000  H
  H36      1.0000 0.84400  0.31770  0.93400  Biso   1.000  H
  H37      1.0000 0.43910  0.20900  0.40630  Biso   1.000  H
  H38      1.0000 0.56090  0.79100  0.59370  Biso   1.000  H
  H39      1.0000 0.06090  0.70900  0.09370  Biso   1.000  H
  H40      1.0000 0.93910  0.29100  0.90630  Biso   1.000  H
  C37      1.0000 0.49380  0.12290  0.49250  Biso   1.000  C
  C38      1.0000 0.50620  0.87710  0.50750  Biso   1.000  C
  C39      1.0000 0.00620  0.62290  0.00750  Biso   1.000  C
  C40      1.0000 0.99380  0.37710  0.99250  Biso   1.000  C
  H41      1.0000 0.53110  0.10220  0.46520  Biso   1.000  H
  H42      1.0000 0.46890  0.89780  0.53480  Biso   1.000  H
  H43      1.0000 0.96890  0.60220  0.03480  Biso   1.000  H
  H44      1.0000 0.03110  0.39780  0.96520  Biso   1.000  H
  H45      1.0000 0.43840  0.08380  0.49650  Biso   1.000  H
  H46      1.0000 0.56160  0.91620  0.50350  Biso   1.000  H
  H47      1.0000 0.06160  0.58380  0.00350  Biso   1.000  H
  H48      1.0000 0.93840  0.41620  0.99650  Biso   1.000  H
  H49      1.0000 0.53450  0.12230  0.52210  Biso   1.000  H
  H50      1.0000 0.46550  0.87770  0.47790  Biso   1.000  H
  H51      1.0000 0.96550  0.62230  0.97790  Biso   1.000  H
  H52      1.0000 0.03450  0.37770  0.02210  Biso   1.000  H
  C41      1.0000 0.38540  0.24350  0.52320  Biso   1.000  C
  C42      1.0000 0.61460  0.75650  0.47680  Biso   1.000  C
  C43      1.0000 0.11460  0.74350  0.97680  Biso   1.000  C
  C44      1.0000 0.88540  0.25650  0.02320  Biso   1.000  C
  H53      1.0000 0.41990  0.24330  0.55480  Biso   1.000  H
  H54      1.0000 0.58010  0.75670  0.44520  Biso   1.000  H
  H55      1.0000 0.08010  0.74330  0.94520  Biso   1.000  H
  H56      1.0000 0.91990  0.25670  0.05480  Biso   1.000  H
  H57      1.0000 0.33350  0.19960  0.52330  Biso   1.000  H
  H58      1.0000 0.66650  0.80040  0.47670  Biso   1.000  H
  H59      1.0000 0.16650  0.69960  0.97670  Biso   1.000  H
  H60      1.0000 0.83350  0.30040  0.02330  Biso   1.000  H
  H61      1.0000 0.35810  0.30240  0.51700  Biso   1.000  H
  H62      1.0000 0.64190  0.69760  0.48300  Biso   1.000  H
  H63      1.0000 0.14190  0.80240  0.98300  Biso   1.000  H
  H64      1.0000 0.85810  0.19760  0.01700  Biso   1.000  H
  C45      1.0000 0.63550  0.49520  0.55280  Biso   1.000  C
  C46      1.0000 0.36450  0.50480  0.44720  Biso   1.000  C
  C47      1.0000 0.86450  0.99520  0.94720  Biso   1.000  C
  C48      1.0000 0.13550  0.00480  0.05280  Biso   1.000  C
  H65      1.0000 0.69640  0.52710  0.55030  Biso   1.000  H
  H66      1.0000 0.30360  0.47290  0.44970  Biso   1.000  H
  H67      1.0000 0.80360  0.02710  0.94970  Biso   1.000  H
  H68      1.0000 0.19640  0.97290  0.05030  Biso   1.000  H
  H69      1.0000 0.63030  0.47210  0.58580  Biso   1.000  H
  H70      1.0000 0.36970  0.52790  0.41420  Biso   1.000  H
  H71      1.0000 0.86970  0.97210  0.91420  Biso   1.000  H
  H72      1.0000 0.13030  0.02790  0.08580  Biso   1.000  H
  H73      1.0000 0.58180  0.53560  0.54550  Biso   1.000  H
  H74      1.0000 0.41820  0.46440  0.45450  Biso   1.000  H
  H75      1.0000 0.91820  0.03560  0.95450  Biso   1.000  H
  H76      1.0000 0.08180  0.96440  0.04550  Biso   1.000  H
  C49      1.0000 0.03280  0.33220  0.24530  Biso   1.000  C
  C50      1.0000 0.96720  0.66780  0.75470  Biso   1.000  C
  C51      1.0000 0.46720  0.83220  0.25470  Biso   1.000  C
  C52      1.0000 0.53280  0.16780  0.74530  Biso   1.000  C
  C53      1.0000 0.11780  0.38380  0.25590  Biso   1.000  C
  C54      1.0000 0.88220  0.61620  0.74410  Biso   1.000  C
  C55      1.0000 0.38220  0.88380  0.24410  Biso   1.000  C
  C56      1.0000 0.61780  0.11620  0.75590  Biso   1.000  C
  C57      1.0000 0.15310  0.43850  0.21940  Biso   1.000  C
  C58      1.0000 0.84690  0.56150  0.78060  Biso   1.000  C
  C59      1.0000 0.34690  0.93850  0.28060  Biso   1.000  C
  C60      1.0000 0.65310  0.06150  0.71940  Biso   1.000  C
  H77      1.0000 0.20790  0.47400  0.22690  Biso   1.000  H
  H78      1.0000 0.79210  0.52600  0.77310  Biso   1.000  H
  H79      1.0000 0.29210  0.97400  0.27310  Biso   1.000  H
  H80      1.0000 0.70790  0.02600  0.72690  Biso   1.000  H
  C61      1.0000 0.11160  0.44390  0.17180  Biso   1.000  C
  C62      1.0000 0.88840  0.55610  0.82820  Biso   1.000  C
  C63      1.0000 0.38840  0.94390  0.32820  Biso   1.000  C
  C64      1.0000 0.61160  0.05610  0.67180  Biso   1.000  C
  C65      1.0000 0.03080  0.39130  0.16068  Biso   1.000  C
  C66      1.0000 0.96920  0.60870  0.83932  Biso   1.000  C
  C67      1.0000 0.46920  0.89130  0.33932  Biso   1.000  C
  C68      1.0000 0.53080  0.10870  0.66068  Biso   1.000  C
  H81      1.0000 0.00310  0.39250  0.12880  Biso   1.000  H
  H82      1.0000 0.99690  0.60750  0.87120  Biso   1.000  H
  H83      1.0000 0.49690  0.89250  0.37120  Biso   1.000  H
  H84      1.0000 0.50310  0.10750  0.62880  Biso   1.000  H
  C69      1.0000 0.98920  0.33570  0.19670  Biso   1.000  C
  C70      1.0000 0.01080  0.66430  0.80330  Biso   1.000  C
  C71      1.0000 0.51080  0.83570  0.30330  Biso   1.000  C
  C72      1.0000 0.48920  0.16430  0.69670  Biso   1.000  C
  C73      1.0000 0.90550  0.28060  0.18171  Biso   1.000  C
  C74      1.0000 0.09450  0.71940  0.81829  Biso   1.000  C
  C75      1.0000 0.59450  0.78060  0.31829  Biso   1.000  C
  C76      1.0000 0.40550  0.21940  0.68171  Biso   1.000  C
  H85      1.0000 0.89040  0.27510  0.14810  Biso   1.000  H
  H86      1.0000 0.10960  0.72490  0.85190  Biso   1.000  H
  H87      1.0000 0.60960  0.77510  0.35190  Biso   1.000  H
  H88      1.0000 0.39040  0.22490  0.64810  Biso   1.000  H
  C77      1.0000 0.16890  0.37770  0.30790  Biso   1.000  C
  C78      1.0000 0.83110  0.62230  0.69210  Biso   1.000  C
  C79      1.0000 0.33110  0.87770  0.19210  Biso   1.000  C
  C80      1.0000 0.66890  0.12230  0.80790  Biso   1.000  C
  C81      1.0000 0.20040  0.28010  0.31880  Biso   1.000  C
  C82      1.0000 0.79960  0.71990  0.68120  Biso   1.000  C
  C83      1.0000 0.29960  0.78010  0.18120  Biso   1.000  C
  C84      1.0000 0.70040  0.21990  0.81880  Biso   1.000  C
  H89      1.0000 0.24860  0.26190  0.29570  Biso   1.000  H
  H90      1.0000 0.75140  0.73810  0.70430  Biso   1.000  H
  H91      1.0000 0.25140  0.76190  0.20430  Biso   1.000  H
  H92      1.0000 0.74860  0.23810  0.79570  Biso   1.000  H
  H93      1.0000 0.14430  0.24100  0.31560  Biso   1.000  H
  H94      1.0000 0.85570  0.75900  0.68440  Biso   1.000  H
  H95      1.0000 0.35570  0.74100  0.18440  Biso   1.000  H
  H96      1.0000 0.64430  0.25900  0.81560  Biso   1.000  H
  H97      1.0000 0.22800  0.27620  0.35190  Biso   1.000  H
  H98      1.0000 0.77200  0.72380  0.64810  Biso   1.000  H
  H99      1.0000 0.27200  0.77620  0.14810  Biso   1.000  H
  H100     1.0000 0.72800  0.22380  0.85190  Biso   1.000  H
  C85      1.0000 0.26250  0.43590  0.31140  Biso   1.000  C
  C86      1.0000 0.73750  0.56410  0.68860  Biso   1.000  C
  C87      1.0000 0.23750  0.93590  0.18860  Biso   1.000  C
  C88      1.0000 0.76250  0.06410  0.81140  Biso   1.000  C
  H101     1.0000 0.29490  0.42710  0.34310  Biso   1.000  H
  H102     1.0000 0.70510  0.57290  0.65690  Biso   1.000  H
  H103     1.0000 0.20510  0.92710  0.15690  Biso   1.000  H
  H104     1.0000 0.79490  0.07290  0.84310  Biso   1.000  H
  H105     1.0000 0.24520  0.49840  0.30750  Biso   1.000  H
  H106     1.0000 0.75480  0.50160  0.69250  Biso   1.000  H
  H107     1.0000 0.25480  0.99840  0.19250  Biso   1.000  H
  H108     1.0000 0.74520  0.00160  0.80750  Biso   1.000  H
  H109     1.0000 0.30580  0.41850  0.28570  Biso   1.000  H
  H110     1.0000 0.69420  0.58150  0.71430  Biso   1.000  H
  H111     1.0000 0.19420  0.91850  0.21430  Biso   1.000  H
  H112     1.0000 0.80580  0.08150  0.78570  Biso   1.000  H
  C89      1.0000 0.09870  0.41060  0.34790  Biso   1.000  C
  C90      1.0000 0.90130  0.58940  0.65210  Biso   1.000  C
  C91      1.0000 0.40130  0.91060  0.15210  Biso   1.000  C
  C92      1.0000 0.59870  0.08940  0.84790  Biso   1.000  C
  H113     1.0000 0.04050  0.37390  0.34700  Biso   1.000  H
  H114     1.0000 0.95950  0.62610  0.65300  Biso   1.000  H
  H115     1.0000 0.45950  0.87390  0.15300  Biso   1.000  H
  H116     1.0000 0.54050  0.12610  0.84700  Biso   1.000  H
  H117     1.0000 0.08100  0.47250  0.34160  Biso   1.000  H
  H118     1.0000 0.91900  0.52750  0.65840  Biso   1.000  H
  H119     1.0000 0.41900  0.97250  0.15840  Biso   1.000  H
  H120     1.0000 0.58100  0.02750  0.84160  Biso   1.000  H
  H121     1.0000 0.13080  0.40600  0.37990  Biso   1.000  H
  H122     1.0000 0.86920  0.59400  0.62010  Biso   1.000  H
  H123     1.0000 0.36920  0.90600  0.12010  Biso   1.000  H
  H124     1.0000 0.63080  0.09400  0.87990  Biso   1.000  H
  C93      1.0000 0.15150  0.50760  0.13430  Biso   1.000  C
  C94      1.0000 0.84850  0.49240  0.86570  Biso   1.000  C
  C95      1.0000 0.34850  0.00760  0.36570  Biso   1.000  C
  C96      1.0000 0.65150  0.99240  0.63430  Biso   1.000  C
  H125     1.0000 0.16900  0.47430  0.10540  Biso   1.000  H
  H126     1.0000 0.83100  0.52570  0.89460  Biso   1.000  H
  H127     1.0000 0.33100  0.97430  0.39460  Biso   1.000  H
  H128     1.0000 0.66900  0.02570  0.60540  Biso   1.000  H
  H129     1.0000 0.20870  0.53740  0.14810  Biso   1.000  H
  H130     1.0000 0.79130  0.46260  0.85190  Biso   1.000  H
  H131     1.0000 0.29130  0.03740  0.35190  Biso   1.000  H
  H132     1.0000 0.70870  0.96260  0.64810  Biso   1.000  H
  H133     1.0000 0.10250  0.55180  0.12530  Biso   1.000  H
  H134     1.0000 0.89750  0.44820  0.87470  Biso   1.000  H
  H135     1.0000 0.39750  0.05180  0.37470  Biso   1.000  H
  H136     1.0000 0.60250  0.94820  0.62530  Biso   1.000  H
  C97      1.0000 0.49420  0.15620  0.16482  Biso   1.000  C
  C98      1.0000 0.50580  0.84380  0.83518  Biso   1.000  C
  C99      1.0000 0.00580  0.65620  0.33518  Biso   1.000  C
  C100     1.0000 0.99420  0.34380  0.66482  Biso   1.000  C
  C101     1.0000 0.46150  0.15940  0.11430  Biso   1.000  C
  C102     1.0000 0.53850  0.84060  0.88570  Biso   1.000  C
  C103     1.0000 0.03850  0.65940  0.38570  Biso   1.000  C
  C104     1.0000 0.96150  0.34060  0.61430  Biso   1.000  C
  C105     1.0000 0.36230  0.17700  0.10490  Biso   1.000  C
  C106     1.0000 0.63770  0.82300  0.89510  Biso   1.000  C
  C107     1.0000 0.13770  0.67700  0.39510  Biso   1.000  C
  C108     1.0000 0.86230  0.32300  0.60490  Biso   1.000  C
  H137     1.0000 0.34020  0.18040  0.07200  Biso   1.000  H
  H138     1.0000 0.65980  0.81960  0.92800  Biso   1.000  H
  H139     1.0000 0.15980  0.68040  0.42800  Biso   1.000  H
  H140     1.0000 0.84020  0.31960  0.57200  Biso   1.000  H
  C109     1.0000 0.29330  0.19000  0.14190  Biso   1.000  C
  C110     1.0000 0.70670  0.81000  0.85810  Biso   1.000  C
  C111     1.0000 0.20670  0.69000  0.35810  Biso   1.000  C
  C112     1.0000 0.79330  0.31000  0.64190  Biso   1.000  C
  C113     1.0000 0.32720  0.18400  0.19030  Biso   1.000  C
  C114     1.0000 0.67280  0.81600  0.80970  Biso   1.000  C
  C115     1.0000 0.17280  0.68400  0.30970  Biso   1.000  C
  C116     1.0000 0.82720  0.31600  0.69030  Biso   1.000  C
  H141     1.0000 0.28290  0.19100  0.21550  Biso   1.000  H
  H142     1.0000 0.71710  0.80900  0.78450  Biso   1.000  H
  H143     1.0000 0.21710  0.69100  0.28450  Biso   1.000  H
  H144     1.0000 0.78290  0.30900  0.71550  Biso   1.000  H
  C117     1.0000 0.42580  0.16770  0.20280  Biso   1.000  C
  C118     1.0000 0.57420  0.83230  0.79720  Biso   1.000  C
  C119     1.0000 0.07420  0.66770  0.29720  Biso   1.000  C
  C120     1.0000 0.92580  0.33230  0.70280  Biso   1.000  C
  C121     1.0000 0.45350  0.16110  0.25470  Biso   1.000  C
  C122     1.0000 0.54650  0.83890  0.74530  Biso   1.000  C
  C123     1.0000 0.04650  0.66110  0.24530  Biso   1.000  C
  C124     1.0000 0.95350  0.33890  0.75470  Biso   1.000  C
  H145     1.0000 0.40330  0.15710  0.27710  Biso   1.000  H
  H146     1.0000 0.59670  0.84290  0.72290  Biso   1.000  H
  H147     1.0000 0.09670  0.65710  0.22290  Biso   1.000  H
  H148     1.0000 0.90330  0.34290  0.77710  Biso   1.000  H
  C125     1.0000 0.53240  0.14170  0.07290  Biso   1.000  C
  C126     1.0000 0.46760  0.85830  0.92710  Biso   1.000  C
  C127     1.0000 0.96760  0.64170  0.42710  Biso   1.000  C
  C128     1.0000 0.03240  0.35830  0.57290  Biso   1.000  C
  C129     1.0000 0.61520  0.21270  0.07390  Biso   1.000  C
  C130     1.0000 0.38480  0.78730  0.92610  Biso   1.000  C
  C131     1.0000 0.88480  0.71270  0.42610  Biso   1.000  C
  C132     1.0000 0.11520  0.28730  0.57390  Biso   1.000  C
  H149     1.0000 0.65170  0.20890  0.10480  Biso   1.000  H
  H150     1.0000 0.34830  0.79110  0.89520  Biso   1.000  H
  H151     1.0000 0.84830  0.70890  0.39520  Biso   1.000  H
  H152     1.0000 0.15170  0.29110  0.60480  Biso   1.000  H
  H153     1.0000 0.58720  0.27190  0.07030  Biso   1.000  H
  H154     1.0000 0.41280  0.72810  0.92970  Biso   1.000  H
  H155     1.0000 0.91280  0.77190  0.42970  Biso   1.000  H
  H156     1.0000 0.08720  0.22810  0.57030  Biso   1.000  H
  H157     1.0000 0.65820  0.20140  0.04720  Biso   1.000  H
  H158     1.0000 0.34180  0.79860  0.95280  Biso   1.000  H
  H159     1.0000 0.84180  0.70140  0.45280  Biso   1.000  H
  H160     1.0000 0.15820  0.29860  0.54720  Biso   1.000  H
  C133     1.0000 0.57600  0.04770  0.07750  Biso   1.000  C
  C134     1.0000 0.42400  0.95230  0.92250  Biso   1.000  C
  C135     1.0000 0.92400  0.54770  0.42250  Biso   1.000  C
  C136     1.0000 0.07600  0.45230  0.57750  Biso   1.000  C
  H161     1.0000 0.61190  0.04240  0.10850  Biso   1.000  H
  H162     1.0000 0.38810  0.95760  0.89150  Biso   1.000  H
  H163     1.0000 0.88810  0.54240  0.39150  Biso   1.000  H
  H164     1.0000 0.11190  0.45760  0.60850  Biso   1.000  H
  H165     1.0000 0.61950  0.03740  0.05090  Biso   1.000  H
  H166     1.0000 0.38050  0.96260  0.94910  Biso   1.000  H
  H167     1.0000 0.88050  0.53740  0.44910  Biso   1.000  H
  H168     1.0000 0.11950  0.46260  0.55090  Biso   1.000  H
  H169     1.0000 0.52420  0.00370  0.07600  Biso   1.000  H
  H170     1.0000 0.47580  0.99630  0.92400  Biso   1.000  H
  H171     1.0000 0.97580  0.50370  0.42400  Biso   1.000  H
  H172     1.0000 0.02420  0.49630  0.57600  Biso   1.000  H
  C137     1.0000 0.47980  0.14770  0.02120  Biso   1.000  C
  C138     1.0000 0.52020  0.85230  0.97880  Biso   1.000  C
  C139     1.0000 0.02020  0.64770  0.47880  Biso   1.000  C
  C140     1.0000 0.97980  0.35230  0.52120  Biso   1.000  C
  H173     1.0000 0.52670  0.13800  0.99600  Biso   1.000  H
  H174     1.0000 0.47330  0.86200  0.00400  Biso   1.000  H
  H175     1.0000 0.97330  0.63800  0.50400  Biso   1.000  H
  H176     1.0000 0.02670  0.36200  0.49600  Biso   1.000  H
  H177     1.0000 0.45080  0.20640  0.01700  Biso   1.000  H
  H178     1.0000 0.54920  0.79360  0.98300  Biso   1.000  H
  H179     1.0000 0.04920  0.70640  0.48300  Biso   1.000  H
  H180     1.0000 0.95080  0.29360  0.51700  Biso   1.000  H
  H181     1.0000 0.42950  0.10240  0.01860  Biso   1.000  H
  H182     1.0000 0.57050  0.89760  0.98140  Biso   1.000  H
  H183     1.0000 0.07050  0.60240  0.48140  Biso   1.000  H
  H184     1.0000 0.92950  0.39760  0.51860  Biso   1.000  H
  C141     1.0000 0.18630  0.21160  0.12940  Biso   1.000  C
  C142     1.0000 0.81370  0.78840  0.87060  Biso   1.000  C
  C143     1.0000 0.31370  0.71160  0.37060  Biso   1.000  C
  C144     1.0000 0.68630  0.28840  0.62940  Biso   1.000  C
  H185     1.0000 0.14640  0.15990  0.13640  Biso   1.000  H
  H186     1.0000 0.85360  0.84010  0.86360  Biso   1.000  H
  H187     1.0000 0.35360  0.65990  0.36360  Biso   1.000  H
  H188     1.0000 0.64640  0.34010  0.63640  Biso   1.000  H
  H189     1.0000 0.17880  0.22650  0.09500  Biso   1.000  H
  H190     1.0000 0.82120  0.77350  0.90500  Biso   1.000  H
  H191     1.0000 0.32120  0.72650  0.40500  Biso   1.000  H
  H192     1.0000 0.67880  0.27350  0.59500  Biso   1.000  H
  H193     1.0000 0.16590  0.26190  0.14900  Biso   1.000  H
  H194     1.0000 0.83410  0.73810  0.85100  Biso   1.000  H
  H195     1.0000 0.33410  0.76190  0.35100  Biso   1.000  H
  H196     1.0000 0.66590  0.23810  0.64900  Biso   1.000  H
  C145     1.0000 0.68270  0.99760  0.38100  Biso   1.000  C
  C146     1.0000 0.31730  0.00240  0.61900  Biso   1.000  C
  C147     1.0000 0.81730  0.49760  0.11900  Biso   1.000  C
  C148     1.0000 0.18270  0.50240  0.88100  Biso   1.000  C
  H197     1.0000 0.63220  0.01530  0.40300  Biso   1.000  H
  H198     1.0000 0.36780  0.98470  0.59700  Biso   1.000  H
  H199     1.0000 0.86780  0.51530  0.09700  Biso   1.000  H
  H200     1.0000 0.13220  0.48470  0.90300  Biso   1.000  H
  H201     1.0000 0.72180  0.95050  0.39610  Biso   1.000  H
  H202     1.0000 0.27820  0.04950  0.60390  Biso   1.000  H
  H203     1.0000 0.77820  0.45050  0.10390  Biso   1.000  H
  H204     1.0000 0.22180  0.54950  0.89610  Biso   1.000  H
  H205     1.0000 0.65310  0.97600  0.35060  Biso   1.000  H
  H206     1.0000 0.34690  0.02400  0.64940  Biso   1.000  H
  H207     1.0000 0.84690  0.47600  0.14940  Biso   1.000  H
  H208     1.0000 0.15310  0.52400  0.85060  Biso   1.000  H
  C149     1.0000 0.50500  0.36500  0.32970  Biso   1.000  C
  C150     1.0000 0.49500  0.63500  0.67030  Biso   1.000  C
  C151     1.0000 0.99500  0.86500  0.17030  Biso   1.000  C
  C152     1.0000 0.00500  0.13500  0.82970  Biso   1.000  C
  H209     1.0000 0.46750  0.31950  0.34600  Biso   1.000  H
  H210     1.0000 0.53250  0.68050  0.65400  Biso   1.000  H
  H211     1.0000 0.03250  0.81950  0.15400  Biso   1.000  H
  H212     1.0000 0.96750  0.18050  0.84600  Biso   1.000  H
  H213     1.0000 0.48770  0.36530  0.29500  Biso   1.000  H
  H214     1.0000 0.51230  0.63470  0.70500  Biso   1.000  H
  H215     1.0000 0.01230  0.86530  0.20500  Biso   1.000  H
  H216     1.0000 0.98770  0.13470  0.79500  Biso   1.000  H
  H217     1.0000 0.49100  0.42300  0.34370  Biso   1.000  H
  H218     1.0000 0.50900  0.57700  0.65630  Biso   1.000  H
  H219     1.0000 0.00900  0.92300  0.15630  Biso   1.000  H
  H220     1.0000 0.99100  0.07700  0.84370  Biso   1.000  H
  C153     1.0000 0.83010  0.46320  0.27189  Biso   1.000  C
  C154     1.0000 0.16990  0.53680  0.72811  Biso   1.000  C
  C155     1.0000 0.66990  0.96320  0.22811  Biso   1.000  C
  C156     1.0000 0.33010  0.03680  0.77189  Biso   1.000  C
  H221     1.0000 0.89330  0.47080  0.28540  Biso   1.000  H
  H222     1.0000 0.10670  0.52920  0.71460  Biso   1.000  H
  H223     1.0000 0.60670  0.97080  0.21460  Biso   1.000  H
  H224     1.0000 0.39330  0.02920  0.78540  Biso   1.000  H
  C157     1.0000 0.98140  0.06240  0.25950  Biso   1.000  C
  C158     1.0000 0.01860  0.93760  0.74050  Biso   1.000  C
  C159     1.0000 0.51860  0.56240  0.24050  Biso   1.000  C
  C160     1.0000 0.48140  0.43760  0.75950  Biso   1.000  C
  H225     1.0000 0.96960  0.07070  0.22460  Biso   1.000  H
  H226     1.0000 0.03040  0.92930  0.77540  Biso   1.000  H
  H227     1.0000 0.53040  0.57070  0.27540  Biso   1.000  H
  H228     1.0000 0.46960  0.42930  0.72460  Biso   1.000  H
  H229     1.0000 0.98920  0.99920  0.26660  Biso   1.000  H
  H230     1.0000 0.01080  0.00080  0.73340  Biso   1.000  H
  H231     1.0000 0.51080  0.49920  0.23340  Biso   1.000  H
  H232     1.0000 0.48920  0.50080  0.76660  Biso   1.000  H
  H233     1.0000 0.04000  0.09410  0.26980  Biso   1.000  H
  H234     1.0000 0.96000  0.90590  0.73020  Biso   1.000  H
  H235     1.0000 0.46000  0.59410  0.23020  Biso   1.000  H
  H236     1.0000 0.54000  0.40590  0.76980  Biso   1.000  H
  C161     1.0000 0.62990  0.36440  0.17410  Biso   1.000  C
  C162     1.0000 0.37010  0.63560  0.82590  Biso   1.000  C
  C163     1.0000 0.87010  0.86440  0.32590  Biso   1.000  C
  C164     1.0000 0.12990  0.13560  0.67410  Biso   1.000  C
  H237     1.0000 0.66160  0.32410  0.15190  Biso   1.000  H
  H238     1.0000 0.33840  0.67590  0.84810  Biso   1.000  H
  H239     1.0000 0.83840  0.82410  0.34810  Biso   1.000  H
  H240     1.0000 0.16160  0.17590  0.65190  Biso   1.000  H
  H241     1.0000 0.66550  0.42040  0.17610  Biso   1.000  H
  H242     1.0000 0.33450  0.57960  0.82390  Biso   1.000  H
  H243     1.0000 0.83450  0.92040  0.32390  Biso   1.000  H
  H244     1.0000 0.16550  0.07960  0.67610  Biso   1.000  H
  H245     1.0000 0.56390  0.37580  0.16210  Biso   1.000  H
  H246     1.0000 0.43610  0.62420  0.83790  Biso   1.000  H
  H247     1.0000 0.93610  0.87580  0.33790  Biso   1.000  H
  H248     1.0000 0.06390  0.12420  0.66210  Biso   1.000  H
  O53      1.0000 0.67330  0.51620  0.34962  Biso   1.000  O
  O54      1.0000 0.32670  0.48380  0.65038  Biso   1.000  O
  O55      1.0000 0.82670  0.01620  0.15038  Biso   1.000  O
  O56      1.0000 0.17330  0.98380  0.84962  Biso   1.000  O
  H249     1.0000 0.68940  0.55510  0.32990  Biso   1.000  H
  H250     1.0000 0.31060  0.44490  0.67010  Biso   1.000  H
  H251     1.0000 0.81060  0.05510  0.17010  Biso   1.000  H
  H252     1.0000 0.18940  0.94490  0.82990  Biso   1.000  H
  C165     1.0000 0.62810  0.55740  0.38990  Biso   1.000  C
  C166     1.0000 0.37190  0.44260  0.61010  Biso   1.000  C
  C167     1.0000 0.87190  0.05740  0.11010  Biso   1.000  C
  C168     1.0000 0.12810  0.94260  0.88990  Biso   1.000  C
  H253     1.0000 0.60660  0.51170  0.41230  Biso   1.000  H
  H254     1.0000 0.39340  0.48830  0.58770  Biso   1.000  H
  H255     1.0000 0.89340  0.01170  0.08770  Biso   1.000  H
  H256     1.0000 0.10660  0.98830  0.91230  Biso   1.000  H
  H257     1.0000 0.57260  0.59210  0.37810  Biso   1.000  H
  H258     1.0000 0.42740  0.40790  0.62190  Biso   1.000  H
  H259     1.0000 0.92740  0.09210  0.12190  Biso   1.000  H
  H260     1.0000 0.07260  0.90790  0.87810  Biso   1.000  H
  H261     1.0000 0.67440  0.59650  0.40680  Biso   1.000  H
  H262     1.0000 0.32560  0.40350  0.59320  Biso   1.000  H
  H263     1.0000 0.82560  0.09650  0.09320  Biso   1.000  H
  H264     1.0000 0.17440  0.90350  0.90680  Biso   1.000  H
  O57      0.5000 0.99010  0.15950  0.42230  Biso   1.000  O
  O58      0.5000 0.00990  0.84050  0.57770  Biso   1.000  O
  O59      0.5000 0.50990  0.65950  0.07770  Biso   1.000  O
  O60      0.5000 0.49010  0.34050  0.92230  Biso   1.000  O
  H265     0.5000 0.97410  0.12120  0.40170  Biso   1.000  H
  H266     0.5000 0.02590  0.87880  0.59830  Biso   1.000  H
  H267     0.5000 0.52590  0.62120  0.09830  Biso   1.000  H
  H268     0.5000 0.47410  0.37880  0.90170  Biso   1.000  H
  C169     0.5000 0.08970  0.16730  0.42870  Biso   1.000  C
  C170     0.5000 0.91030  0.83270  0.57130  Biso   1.000  C
  C171     0.5000 0.41030  0.66730  0.07130  Biso   1.000  C
  C172     0.5000 0.58970  0.33270  0.92870  Biso   1.000  C
  H269     0.5000 0.10840  0.22930  0.42460  Biso   1.000  H
  H270     0.5000 0.89160  0.77070  0.57540  Biso   1.000  H
  H271     0.5000 0.39160  0.72930  0.07540  Biso   1.000  H
  H272     0.5000 0.60840  0.27070  0.92460  Biso   1.000  H
  H273     0.5000 0.12140  0.13070  0.40470  Biso   1.000  H
  H274     0.5000 0.87860  0.86930  0.59530  Biso   1.000  H
  H275     0.5000 0.37860  0.63070  0.09530  Biso   1.000  H
  H276     0.5000 0.62140  0.36930  0.90470  Biso   1.000  H
  H277     0.5000 0.10910  0.14750  0.46140  Biso   1.000  H
  H278     0.5000 0.89090  0.85250  0.53860  Biso   1.000  H
  H279     0.5000 0.39090  0.64750  0.03860  Biso   1.000  H
  H280     0.5000 0.60910  0.35250  0.96140  Biso   1.000  H
  O61      0.5000 0.84110  0.06760  0.46410  Biso   1.000  O
  O62      0.5000 0.15890  0.93240  0.53590  Biso   1.000  O
  O63      0.5000 0.65890  0.56760  0.03590  Biso   1.000  O
  O64      0.5000 0.34110  0.43240  0.96410  Biso   1.000  O
  H281     0.5000 0.88760  0.09920  0.45640  Biso   1.000  H
  H282     0.5000 0.11240  0.90080  0.54360  Biso   1.000  H
  H283     0.5000 0.61240  0.59920  0.04360  Biso   1.000  H
  H284     0.5000 0.38760  0.40080  0.95640  Biso   1.000  H
  C173     0.5000 0.79810  0.10460  0.50670  Biso   1.000  C
  C174     0.5000 0.20190  0.89540  0.49330  Biso   1.000  C
  C175     0.5000 0.70190  0.60460  0.99330  Biso   1.000  C
  C176     0.5000 0.29810  0.39540  0.00670  Biso   1.000  C
  H285     0.5000 0.84830  0.13160  0.52760  Biso   1.000  H
  H286     0.5000 0.15170  0.86840  0.47240  Biso   1.000  H
  H287     0.5000 0.65170  0.63160  0.97240  Biso   1.000  H
  H288     0.5000 0.34830  0.36840  0.02760  Biso   1.000  H
  H289     0.5000 0.76600  0.05760  0.52450  Biso   1.000  H
  H290     0.5000 0.23400  0.94240  0.47550  Biso   1.000  H
  H291     0.5000 0.73400  0.55760  0.97550  Biso   1.000  H
  H292     0.5000 0.26600  0.44240  0.02450  Biso   1.000  H
  H293     0.5000 0.75080  0.14980  0.49680  Biso   1.000  H
  H294     0.5000 0.24920  0.85020  0.50320  Biso   1.000  H
  H295     0.5000 0.74920  0.64980  0.00320  Biso   1.000  H
  H296     0.5000 0.25080  0.35020  0.99680  Biso   1.000  H
