data_image0
_cell_length_a       11.8346
_cell_length_b       12.5567
_cell_length_c       18.292
_cell_angle_alpha    90
_cell_angle_beta     90
_cell_angle_gamma    108.881

_symmetry_space_group_name_H-M    "P 1"
_symmetry_int_tables_number       1

loop_
  _symmetry_equiv_pos_as_xyz
  'x, y, z'

loop_
  _atom_site_label
  _atom_site_occupancy
  _atom_site_fract_x
  _atom_site_fract_y
  _atom_site_fract_z
  _atom_site_thermal_displace_type
  _atom_site_B_iso_or_equiv
  _atom_site_type_symbol
  Cu1      1.0000 0.70514  0.66338  0.32373  Biso   1.000  Cu
  Cu2      1.0000 0.70514  0.16338  0.17627  Biso   1.000  Cu
  Cu3      1.0000 0.29486  0.33662  0.67627  Biso   1.000  Cu
  Cu4      1.0000 0.29486  0.83662  0.82373  Biso   1.000  Cu
  Cu5      1.0000 0.70885  0.64684  0.14028  Biso   1.000  Cu
  Cu6      1.0000 0.70885  0.14684  0.35972  Biso   1.000  Cu
  Cu7      1.0000 0.29115  0.35316  0.85972  Biso   1.000  Cu
  Cu8      1.0000 0.29115  0.85316  0.64028  Biso   1.000  Cu
  V1       1.0000 0.66409  0.68112  0.97287  Biso   1.000  V
  V2       1.0000 0.66409  0.18112  0.52713  Biso   1.000  V
  V3       1.0000 0.33591  0.31888  0.02713  Biso   1.000  V
  V4       1.0000 0.33591  0.81888  0.47287  Biso   1.000  V
  V5       1.0000 0.64229  0.42439  0.02075  Biso   1.000  V
  V6       1.0000 0.64229  0.92439  0.47925  Biso   1.000  V
  V7       1.0000 0.35771  0.57561  0.97925  Biso   1.000  V
  V8       1.0000 0.35771  0.07561  0.52075  Biso   1.000  V
  O1       1.0000 0.74641  0.74289  0.04537  Biso   1.000  O
  O2       1.0000 0.74641  0.24289  0.45463  Biso   1.000  O
  O3       1.0000 0.25359  0.25711  0.95463  Biso   1.000  O
  O4       1.0000 0.25359  0.75711  0.54537  Biso   1.000  O
  O5       1.0000 0.71368  0.75685  0.89898  Biso   1.000  O
  O6       1.0000 0.71368  0.25685  0.60102  Biso   1.000  O
  O7       1.0000 0.28632  0.24315  0.10102  Biso   1.000  O
  O8       1.0000 0.28632  0.74315  0.39898  Biso   1.000  O
  O9       1.0000 0.67635  0.54450  0.95968  Biso   1.000  O
  O10      1.0000 0.67635  0.04450  0.54032  Biso   1.000  O
  O11      1.0000 0.32365  0.45550  0.04032  Biso   1.000  O
  O12      1.0000 0.32365  0.95550  0.45968  Biso   1.000  O
  O13      1.0000 0.51124  0.66659  0.98867  Biso   1.000  O
  O14      1.0000 0.51124  0.16659  0.51133  Biso   1.000  O
  O15      1.0000 0.48876  0.33341  0.01133  Biso   1.000  O
  O16      1.0000 0.48876  0.83341  0.48867  Biso   1.000  O
  O17      1.0000 0.73176  0.35357  0.00131  Biso   1.000  O
  O18      1.0000 0.73176  0.85357  0.49869  Biso   1.000  O
  O19      1.0000 0.26824  0.64643  0.99869  Biso   1.000  O
  O20      1.0000 0.26824  0.14643  0.50131  Biso   1.000  O
  O21      1.0000 0.66928  0.47598  0.10474  Biso   1.000  O
  O22      1.0000 0.66928  0.97598  0.39526  Biso   1.000  O
  O23      1.0000 0.33072  0.52402  0.89526  Biso   1.000  O
  O24      1.0000 0.33072  0.02402  0.60474  Biso   1.000  O
  O25      1.0000 0.89780  0.96348  0.90917  Biso   1.000  O
  O26      1.0000 0.89780  0.46348  0.59083  Biso   1.000  O
  O27      1.0000 0.10220  0.03652  0.09083  Biso   1.000  O
  O28      1.0000 0.10220  0.53652  0.40917  Biso   1.000  O
  O29      1.0000 0.85156  0.97272  0.05968  Biso   1.000  O
  O30      1.0000 0.85156  0.47272  0.44032  Biso   1.000  O
  O31      1.0000 0.14844  0.02728  0.94032  Biso   1.000  O
  O32      1.0000 0.14844  0.52728  0.55968  Biso   1.000  O
  N1       1.0000 0.84911  0.77288  0.36978  Biso   1.000  N
  N2       1.0000 0.84911  0.27288  0.13022  Biso   1.000  N
  N3       1.0000 0.15089  0.22712  0.63022  Biso   1.000  N
  N4       1.0000 0.15089  0.72712  0.86978  Biso   1.000  N
  N5       1.0000 0.70778  0.80890  0.27113  Biso   1.000  N
  N6       1.0000 0.70778  0.30890  0.22887  Biso   1.000  N
  N7       1.0000 0.29222  0.19110  0.72887  Biso   1.000  N
  N8       1.0000 0.29222  0.69110  0.77113  Biso   1.000  N
  N9       1.0000 0.54836  0.62730  0.18259  Biso   1.000  N
  N10      1.0000 0.54836  0.12730  0.31741  Biso   1.000  N
  N11      1.0000 0.45164  0.37270  0.81741  Biso   1.000  N
  N12      1.0000 0.45164  0.87270  0.68259  Biso   1.000  N
  N13      1.0000 0.87624  0.18342  0.31989  Biso   1.000  N
  N14      1.0000 0.87624  0.68342  0.18011  Biso   1.000  N
  N15      1.0000 0.12376  0.81658  0.68011  Biso   1.000  N
  N16      1.0000 0.12376  0.31658  0.81989  Biso   1.000  N
  N17      1.0000 0.71980  0.01449  0.21371  Biso   1.000  N
  N18      1.0000 0.71980  0.51449  0.28629  Biso   1.000  N
  N19      1.0000 0.28020  0.98551  0.78629  Biso   1.000  N
  N20      1.0000 0.28020  0.48551  0.71371  Biso   1.000  N
  N21      1.0000 0.55534  0.05518  0.13399  Biso   1.000  N
  N22      1.0000 0.55534  0.55518  0.36601  Biso   1.000  N
  N23      1.0000 0.44466  0.94482  0.86601  Biso   1.000  N
  N24      1.0000 0.44466  0.44482  0.63399  Biso   1.000  N
  C1       1.0000 0.91550  0.74613  0.42166  Biso   1.000  C
  C2       1.0000 0.91550  0.24613  0.07834  Biso   1.000  C
  C3       1.0000 0.08450  0.25387  0.57834  Biso   1.000  C
  C4       1.0000 0.08450  0.75387  0.92166  Biso   1.000  C
  C5       1.0000 0.01500  0.82340  0.45260  Biso   1.000  C
  C6       1.0000 0.01500  0.32340  0.04740  Biso   1.000  C
  C7       1.0000 0.98500  0.17660  0.54740  Biso   1.000  C
  C8       1.0000 0.98500  0.67660  0.95260  Biso   1.000  C
  C9       1.0000 0.04720  0.93430  0.42956  Biso   1.000  C
  C10      1.0000 0.04720  0.43430  0.07044  Biso   1.000  C
  C11      1.0000 0.95280  0.06570  0.57044  Biso   1.000  C
  C12      1.0000 0.95280  0.56570  0.92956  Biso   1.000  C
  C13      1.0000 0.97850  0.96273  0.37576  Biso   1.000  C
  C14      1.0000 0.97850  0.46273  0.12424  Biso   1.000  C
  C15      1.0000 0.02150  0.03727  0.62424  Biso   1.000  C
  C16      1.0000 0.02150  0.53727  0.87576  Biso   1.000  C
  C17      1.0000 0.88112  0.88072  0.34615  Biso   1.000  C
  C18      1.0000 0.88112  0.38072  0.15385  Biso   1.000  C
  C19      1.0000 0.11888  0.11928  0.65385  Biso   1.000  C
  C20      1.0000 0.11888  0.61928  0.84615  Biso   1.000  C
  C21      1.0000 0.79939  0.90066  0.28993  Biso   1.000  C
  C22      1.0000 0.79939  0.40066  0.21007  Biso   1.000  C
  C23      1.0000 0.20061  0.09934  0.71007  Biso   1.000  C
  C24      1.0000 0.20061  0.59934  0.78993  Biso   1.000  C
  C25      1.0000 0.62192  0.81855  0.22586  Biso   1.000  C
  C26      1.0000 0.62192  0.31855  0.27414  Biso   1.000  C
  C27      1.0000 0.37808  0.18145  0.77414  Biso   1.000  C
  C28      1.0000 0.37808  0.68145  0.72586  Biso   1.000  C
  C29      1.0000 0.62761  0.92266  0.19537  Biso   1.000  C
  C30      1.0000 0.62761  0.42266  0.30463  Biso   1.000  C
  C31      1.0000 0.37239  0.07734  0.80463  Biso   1.000  C
  C32      1.0000 0.37239  0.57734  0.69537  Biso   1.000  C
  C33      1.0000 0.52110  0.71118  0.21733  Biso   1.000  C
  C34      1.0000 0.52110  0.21118  0.28267  Biso   1.000  C
  C35      1.0000 0.47890  0.28882  0.78267  Biso   1.000  C
  C36      1.0000 0.47890  0.78882  0.71733  Biso   1.000  C
  C37      1.0000 0.41200  0.69776  0.24972  Biso   1.000  C
  C38      1.0000 0.41200  0.19776  0.25028  Biso   1.000  C
  C39      1.0000 0.58800  0.30224  0.75028  Biso   1.000  C
  C40      1.0000 0.58800  0.80224  0.74972  Biso   1.000  C
  C41      1.0000 0.32350  0.59350  0.24450  Biso   1.000  C
  C42      1.0000 0.32350  0.09350  0.25550  Biso   1.000  C
  C43      1.0000 0.67650  0.40650  0.75550  Biso   1.000  C
  C44      1.0000 0.67650  0.90650  0.74450  Biso   1.000  C
  C45      1.0000 0.34780  0.50824  0.20676  Biso   1.000  C
  C46      1.0000 0.34780  0.00824  0.29324  Biso   1.000  C
  C47      1.0000 0.65220  0.49176  0.79324  Biso   1.000  C
  C48      1.0000 0.65220  0.99176  0.70676  Biso   1.000  C
  C49      1.0000 0.46070  0.52736  0.17770  Biso   1.000  C
  C50      1.0000 0.46070  0.02736  0.32230  Biso   1.000  C
  C51      1.0000 0.53930  0.47264  0.82230  Biso   1.000  C
  C52      1.0000 0.53930  0.97264  0.67770  Biso   1.000  C
  C53      1.0000 0.96340  0.28155  0.33416  Biso   1.000  C
  C54      1.0000 0.96340  0.78155  0.16584  Biso   1.000  C
  C55      1.0000 0.03660  0.71845  0.66584  Biso   1.000  C
  C56      1.0000 0.03660  0.21845  0.83416  Biso   1.000  C
  C57      1.0000 0.07370  0.31200  0.30035  Biso   1.000  C
  C58      1.0000 0.07370  0.81200  0.19965  Biso   1.000  C
  C59      1.0000 0.92630  0.68800  0.69965  Biso   1.000  C
  C60      1.0000 0.92630  0.18800  0.80035  Biso   1.000  C
  C61      1.0000 0.09680  0.24090  0.24861  Biso   1.000  C
  C62      1.0000 0.09680  0.74090  0.25139  Biso   1.000  C
  C63      1.0000 0.90320  0.75910  0.75139  Biso   1.000  C
  C64      1.0000 0.90320  0.25910  0.74861  Biso   1.000  C
  C65      1.0000 0.00880  0.13892  0.23486  Biso   1.000  C
  C66      1.0000 0.00880  0.63892  0.26514  Biso   1.000  C
  C67      1.0000 0.99120  0.86108  0.76514  Biso   1.000  C
  C68      1.0000 0.99120  0.36108  0.73486  Biso   1.000  C
  C69      1.0000 0.90144  0.11292  0.27217  Biso   1.000  C
  C70      1.0000 0.90144  0.61292  0.22783  Biso   1.000  C
  C71      1.0000 0.09856  0.88708  0.72783  Biso   1.000  C
  C72      1.0000 0.09856  0.38708  0.77217  Biso   1.000  C
  C73      1.0000 0.80525  0.00482  0.25849  Biso   1.000  C
  C74      1.0000 0.80525  0.50482  0.24151  Biso   1.000  C
  C75      1.0000 0.19475  0.99518  0.74151  Biso   1.000  C
  C76      1.0000 0.19475  0.49518  0.75849  Biso   1.000  C
  C77      1.0000 0.47750  0.08396  0.09136  Biso   1.000  C
  C78      1.0000 0.47750  0.58396  0.40864  Biso   1.000  C
  C79      1.0000 0.52250  0.91604  0.90864  Biso   1.000  C
  C80      1.0000 0.52250  0.41604  0.59136  Biso   1.000  C
  C81      1.0000 0.38300  0.00580  0.05613  Biso   1.000  C
  C82      1.0000 0.38300  0.50580  0.44387  Biso   1.000  C
  C83      1.0000 0.61700  0.99420  0.94387  Biso   1.000  C
  C84      1.0000 0.61700  0.49420  0.55613  Biso   1.000  C
  C85      1.0000 0.37180  0.89233  0.06284  Biso   1.000  C
  C86      1.0000 0.37180  0.39233  0.43716  Biso   1.000  C
  C87      1.0000 0.62820  0.10767  0.93716  Biso   1.000  C
  C88      1.0000 0.62820  0.60767  0.56284  Biso   1.000  C
  C89      1.0000 0.45210  0.86185  0.10643  Biso   1.000  C
  C90      1.0000 0.45210  0.36185  0.39357  Biso   1.000  C
  C91      1.0000 0.54790  0.13815  0.89357  Biso   1.000  C
  C92      1.0000 0.54790  0.63815  0.60643  Biso   1.000  C
  C93      1.0000 0.54028  0.94422  0.14379  Biso   1.000  C
  C94      1.0000 0.54028  0.44422  0.35621  Biso   1.000  C
  C95      1.0000 0.45972  0.05578  0.85621  Biso   1.000  C
  C96      1.0000 0.45972  0.55578  0.64379  Biso   1.000  C
  H1       1.0000 0.88500  0.67000  0.43850  Biso   1.000  H
  H2       1.0000 0.88500  0.17000  0.06150  Biso   1.000  H
  H3       1.0000 0.11500  0.33000  0.56150  Biso   1.000  H
  H4       1.0000 0.11500  0.83000  0.93850  Biso   1.000  H
  H5       1.0000 0.06300  0.79500  0.49170  Biso   1.000  H
  H6       1.0000 0.06300  0.29500  0.00830  Biso   1.000  H
  H7       1.0000 0.93700  0.20500  0.50830  Biso   1.000  H
  H8       1.0000 0.93700  0.70500  0.99170  Biso   1.000  H
  H9       1.0000 0.11000  0.99100  0.45090  Biso   1.000  H
  H10      1.0000 0.11000  0.49100  0.04910  Biso   1.000  H
  H11      1.0000 0.89000  0.00900  0.54910  Biso   1.000  H
  H12      1.0000 0.89000  0.50900  0.95090  Biso   1.000  H
  H13      1.0000 0.99900  0.04200  0.36040  Biso   1.000  H
  H14      1.0000 0.99900  0.54200  0.13960  Biso   1.000  H
  H15      1.0000 0.00100  0.95800  0.63960  Biso   1.000  H
  H16      1.0000 0.00100  0.45800  0.86040  Biso   1.000  H
  H17      1.0000 0.40200  0.76400  0.27940  Biso   1.000  H
  H18      1.0000 0.40200  0.26400  0.22060  Biso   1.000  H
  H19      1.0000 0.59800  0.23600  0.72060  Biso   1.000  H
  H20      1.0000 0.59800  0.73600  0.77940  Biso   1.000  H
  H21      1.0000 0.25400  0.58200  0.27110  Biso   1.000  H
  H22      1.0000 0.25400  0.08200  0.22890  Biso   1.000  H
  H23      1.0000 0.74600  0.41800  0.72890  Biso   1.000  H
  H24      1.0000 0.74600  0.91800  0.77110  Biso   1.000  H
  H25      1.0000 0.29000  0.43500  0.19930  Biso   1.000  H
  H26      1.0000 0.29000  0.93500  0.30070  Biso   1.000  H
  H27      1.0000 0.71000  0.56500  0.80070  Biso   1.000  H
  H28      1.0000 0.71000  0.06500  0.69930  Biso   1.000  H
  H29      1.0000 0.48300  0.47000  0.14880  Biso   1.000  H
  H30      1.0000 0.48300  0.97000  0.35120  Biso   1.000  H
  H31      1.0000 0.51700  0.53000  0.85120  Biso   1.000  H
  H32      1.0000 0.51700  0.03000  0.64880  Biso   1.000  H
  H33      1.0000 0.94300  0.33300  0.37050  Biso   1.000  H
  H34      1.0000 0.94300  0.83300  0.12950  Biso   1.000  H
  H35      1.0000 0.05700  0.66700  0.62950  Biso   1.000  H
  H36      1.0000 0.05700  0.16700  0.87050  Biso   1.000  H
  H37      1.0000 0.13200  0.38300  0.31100  Biso   1.000  H
  H38      1.0000 0.13200  0.88300  0.18900  Biso   1.000  H
  H39      1.0000 0.86800  0.61700  0.68900  Biso   1.000  H
  H40      1.0000 0.86800  0.11700  0.81100  Biso   1.000  H
  H41      1.0000 0.16600  0.26300  0.22150  Biso   1.000  H
  H42      1.0000 0.16600  0.76300  0.27850  Biso   1.000  H
  H43      1.0000 0.83400  0.73700  0.77850  Biso   1.000  H
  H44      1.0000 0.83400  0.23700  0.72150  Biso   1.000  H
  H45      1.0000 0.01800  0.08200  0.19880  Biso   1.000  H
  H46      1.0000 0.01800  0.58200  0.30120  Biso   1.000  H
  H47      1.0000 0.98200  0.91800  0.80120  Biso   1.000  H
  H48      1.0000 0.98200  0.41800  0.69880  Biso   1.000  H
  H49      1.0000 0.49000  0.16200  0.08880  Biso   1.000  H
  H50      1.0000 0.49000  0.66200  0.41120  Biso   1.000  H
  H51      1.0000 0.51000  0.83800  0.91120  Biso   1.000  H
  H52      1.0000 0.51000  0.33800  0.58880  Biso   1.000  H
  H53      1.0000 0.32700  0.03000  0.02110  Biso   1.000  H
  H54      1.0000 0.32700  0.53000  0.47890  Biso   1.000  H
  H55      1.0000 0.67300  0.97000  0.97890  Biso   1.000  H
  H56      1.0000 0.67300  0.47000  0.52110  Biso   1.000  H
  H57      1.0000 0.31900  0.84300  0.03720  Biso   1.000  H
  H58      1.0000 0.31900  0.34300  0.46280  Biso   1.000  H
  H59      1.0000 0.68100  0.15700  0.96280  Biso   1.000  H
  H60      1.0000 0.68100  0.65700  0.53720  Biso   1.000  H
  H61      1.0000 0.44400  0.78500  0.10830  Biso   1.000  H
  H62      1.0000 0.44400  0.28500  0.39170  Biso   1.000  H
  H63      1.0000 0.55600  0.21500  0.89170  Biso   1.000  H
  H64      1.0000 0.55600  0.71500  0.60830  Biso   1.000  H
