data_image0
_cell_length_a       15.285
_cell_length_b       18.921
_cell_length_c       20.541
_cell_angle_alpha    90
_cell_angle_beta     90
_cell_angle_gamma    92.1372

_symmetry_space_group_name_H-M    "P 1"
_symmetry_int_tables_number       1

loop_
  _symmetry_equiv_pos_as_xyz
  'x, y, z'

loop_
  _atom_site_label
  _atom_site_occupancy
  _atom_site_fract_x
  _atom_site_fract_y
  _atom_site_fract_z
  _atom_site_thermal_displace_type
  _atom_site_B_iso_or_equiv
  _atom_site_type_symbol
  Er1      1.0000 0.73712  0.61837  0.25737  Biso   1.000  Er
  Er2      1.0000 0.23712  0.11837  0.75737  Biso   1.000  Er
  Er3      1.0000 0.76288  0.38163  0.25737  Biso   1.000  Er
  Er4      1.0000 0.26288  0.88163  0.75737  Biso   1.000  Er
  Er5      1.0000 0.26288  0.38163  0.74263  Biso   1.000  Er
  Er6      1.0000 0.76288  0.88163  0.24263  Biso   1.000  Er
  Er7      1.0000 0.23712  0.61837  0.74263  Biso   1.000  Er
  Er8      1.0000 0.73712  0.11837  0.24263  Biso   1.000  Er
  Zn1      1.0000 0.29331  0.71075  0.02431  Biso   1.000  Zn
  Zn2      1.0000 0.79331  0.21075  0.52431  Biso   1.000  Zn
  Zn3      1.0000 0.20669  0.28925  0.02431  Biso   1.000  Zn
  Zn4      1.0000 0.70669  0.78925  0.52431  Biso   1.000  Zn
  Zn5      1.0000 0.70669  0.28925  0.97569  Biso   1.000  Zn
  Zn6      1.0000 0.20669  0.78925  0.47569  Biso   1.000  Zn
  Zn7      1.0000 0.79331  0.71075  0.97569  Biso   1.000  Zn
  Zn8      1.0000 0.29331  0.21075  0.47569  Biso   1.000  Zn
  Zn9      1.0000 0.21654  0.48803  0.28336  Biso   1.000  Zn
  Zn10     1.0000 0.71654  0.98803  0.78336  Biso   1.000  Zn
  Zn11     1.0000 0.28346  0.51197  0.28336  Biso   1.000  Zn
  Zn12     1.0000 0.78346  0.01197  0.78336  Biso   1.000  Zn
  Zn13     1.0000 0.78346  0.51197  0.71664  Biso   1.000  Zn
  Zn14     1.0000 0.28346  0.01197  0.21664  Biso   1.000  Zn
  Zn15     1.0000 0.71654  0.48803  0.71664  Biso   1.000  Zn
  Zn16     1.0000 0.21654  0.98803  0.21664  Biso   1.000  Zn
  Cl1      1.0000 0.39813  0.76107  0.95935  Biso   1.000  Cl
  Cl2      1.0000 0.89813  0.26107  0.45935  Biso   1.000  Cl
  Cl3      1.0000 0.10187  0.23893  0.95935  Biso   1.000  Cl
  Cl4      1.0000 0.60187  0.73893  0.45935  Biso   1.000  Cl
  Cl5      1.0000 0.60187  0.23893  0.04065  Biso   1.000  Cl
  Cl6      1.0000 0.10187  0.73893  0.54065  Biso   1.000  Cl
  Cl7      1.0000 0.89813  0.76107  0.04065  Biso   1.000  Cl
  Cl8      1.0000 0.39813  0.26107  0.54065  Biso   1.000  Cl
  Cl9      1.0000 0.26215  0.59807  0.98512  Biso   1.000  Cl
  Cl10     1.0000 0.76215  0.09807  0.48512  Biso   1.000  Cl
  Cl11     1.0000 0.23785  0.40193  0.98512  Biso   1.000  Cl
  Cl12     1.0000 0.73785  0.90193  0.48512  Biso   1.000  Cl
  Cl13     1.0000 0.73785  0.40193  0.01488  Biso   1.000  Cl
  Cl14     1.0000 0.23785  0.90193  0.51488  Biso   1.000  Cl
  Cl15     1.0000 0.76215  0.59807  0.01488  Biso   1.000  Cl
  Cl16     1.0000 0.26215  0.09807  0.51488  Biso   1.000  Cl
  Cl17     1.0000 0.34560  0.70384  0.12748  Biso   1.000  Cl
  Cl18     1.0000 0.84560  0.20384  0.62748  Biso   1.000  Cl
  Cl19     1.0000 0.15440  0.29616  0.12748  Biso   1.000  Cl
  Cl20     1.0000 0.65440  0.79616  0.62748  Biso   1.000  Cl
  Cl21     1.0000 0.65440  0.29616  0.87252  Biso   1.000  Cl
  Cl22     1.0000 0.15440  0.79616  0.37252  Biso   1.000  Cl
  Cl23     1.0000 0.84560  0.70384  0.87252  Biso   1.000  Cl
  Cl24     1.0000 0.34560  0.20384  0.37252  Biso   1.000  Cl
  Cl25     1.0000 0.16578  0.76822  0.02305  Biso   1.000  Cl
  Cl26     1.0000 0.66578  0.26822  0.52305  Biso   1.000  Cl
  Cl27     1.0000 0.33422  0.23178  0.02305  Biso   1.000  Cl
  Cl28     1.0000 0.83422  0.73178  0.52305  Biso   1.000  Cl
  Cl29     1.0000 0.83422  0.23178  0.97695  Biso   1.000  Cl
  Cl30     1.0000 0.33422  0.73178  0.47695  Biso   1.000  Cl
  Cl31     1.0000 0.66578  0.76822  0.97695  Biso   1.000  Cl
  Cl32     1.0000 0.16578  0.26822  0.47695  Biso   1.000  Cl
  Cl33     1.0000 0.23084  0.50752  0.17994  Biso   1.000  Cl
  Cl34     1.0000 0.73084  0.00752  0.67994  Biso   1.000  Cl
  Cl35     1.0000 0.26916  0.49248  0.17994  Biso   1.000  Cl
  Cl36     1.0000 0.76916  0.99248  0.67994  Biso   1.000  Cl
  Cl37     1.0000 0.76916  0.49248  0.82006  Biso   1.000  Cl
  Cl38     1.0000 0.26916  0.99248  0.32006  Biso   1.000  Cl
  Cl39     1.0000 0.73084  0.50752  0.82006  Biso   1.000  Cl
  Cl40     1.0000 0.23084  0.00752  0.32006  Biso   1.000  Cl
  Cl41     1.0000 0.07164  0.47073  0.26765  Biso   1.000  Cl
  Cl42     1.0000 0.57164  0.97073  0.76765  Biso   1.000  Cl
  Cl43     1.0000 0.42836  0.52927  0.26765  Biso   1.000  Cl
  Cl44     1.0000 0.92836  0.02927  0.76765  Biso   1.000  Cl
  Cl45     1.0000 0.92836  0.52927  0.73235  Biso   1.000  Cl
  Cl46     1.0000 0.42836  0.02927  0.23235  Biso   1.000  Cl
  Cl47     1.0000 0.57164  0.47073  0.73235  Biso   1.000  Cl
  Cl48     1.0000 0.07164  0.97073  0.23235  Biso   1.000  Cl
  Cl49     1.0000 0.24103  0.59554  0.34096  Biso   1.000  Cl
  Cl50     1.0000 0.74103  0.09554  0.84096  Biso   1.000  Cl
  Cl51     1.0000 0.25897  0.40446  0.34096  Biso   1.000  Cl
  Cl52     1.0000 0.75897  0.90446  0.84096  Biso   1.000  Cl
  Cl53     1.0000 0.75897  0.40446  0.65904  Biso   1.000  Cl
  Cl54     1.0000 0.25897  0.90446  0.15904  Biso   1.000  Cl
  Cl55     1.0000 0.74103  0.59554  0.65904  Biso   1.000  Cl
  Cl56     1.0000 0.24103  0.09554  0.15904  Biso   1.000  Cl
  O1       1.0000 0.82972  0.57275  0.17979  Biso   1.000  O
  O2       1.0000 0.32972  0.07275  0.67979  Biso   1.000  O
  O3       1.0000 0.67028  0.42725  0.17979  Biso   1.000  O
  O4       1.0000 0.17028  0.92725  0.67979  Biso   1.000  O
  O5       1.0000 0.17028  0.42725  0.82021  Biso   1.000  O
  O6       1.0000 0.67028  0.92725  0.32021  Biso   1.000  O
  O7       1.0000 0.32972  0.57275  0.82021  Biso   1.000  O
  O8       1.0000 0.82972  0.07275  0.32021  Biso   1.000  O
  O9       1.0000 0.85357  0.45942  0.20104  Biso   1.000  O
  O10      1.0000 0.35357  0.95942  0.70104  Biso   1.000  O
  O11      1.0000 0.64643  0.54058  0.20104  Biso   1.000  O
  O12      1.0000 0.14643  0.04058  0.70104  Biso   1.000  O
  O13      1.0000 0.14643  0.54058  0.79896  Biso   1.000  O
  O14      1.0000 0.64643  0.04058  0.29896  Biso   1.000  O
  O15      1.0000 0.35357  0.45942  0.79896  Biso   1.000  O
  O16      1.0000 0.85357  0.95942  0.29896  Biso   1.000  O
  O17      1.0000 0.84278  0.70727  0.24991  Biso   1.000  O
  O18      1.0000 0.34278  0.20727  0.74991  Biso   1.000  O
  O19      1.0000 0.65722  0.29273  0.24991  Biso   1.000  O
  O20      1.0000 0.15722  0.79273  0.74991  Biso   1.000  O
  O21      1.0000 0.15722  0.29273  0.75009  Biso   1.000  O
  O22      1.0000 0.65722  0.79273  0.25009  Biso   1.000  O
  O23      1.0000 0.34278  0.70727  0.75009  Biso   1.000  O
  O24      1.0000 0.84278  0.20727  0.25009  Biso   1.000  O
  O25      1.0000 0.89046  0.81880  0.23716  Biso   1.000  O
  O26      1.0000 0.39046  0.31880  0.73716  Biso   1.000  O
  O27      1.0000 0.60954  0.18120  0.23716  Biso   1.000  O
  O28      1.0000 0.10954  0.68120  0.73716  Biso   1.000  O
  O29      1.0000 0.10954  0.18120  0.76284  Biso   1.000  O
  O30      1.0000 0.60954  0.68120  0.26284  Biso   1.000  O
  O31      1.0000 0.39046  0.81880  0.76284  Biso   1.000  O
  O32      1.0000 0.89046  0.31880  0.26284  Biso   1.000  O
  O33      1.0000 0.84764  0.56417  0.31601  Biso   1.000  O
  O34      1.0000 0.34764  0.06417  0.81601  Biso   1.000  O
  O35      1.0000 0.65236  0.43583  0.31601  Biso   1.000  O
  O36      1.0000 0.15236  0.93583  0.81601  Biso   1.000  O
  O37      1.0000 0.15236  0.43583  0.68399  Biso   1.000  O
  O38      1.0000 0.65236  0.93583  0.18399  Biso   1.000  O
  O39      1.0000 0.34764  0.56417  0.68399  Biso   1.000  O
  O40      1.0000 0.84764  0.06417  0.18399  Biso   1.000  O
  O41      1.0000 0.83784  0.44733  0.33734  Biso   1.000  O
  O42      1.0000 0.33784  0.94733  0.83734  Biso   1.000  O
  O43      1.0000 0.66216  0.55267  0.33734  Biso   1.000  O
  O44      1.0000 0.16216  0.05267  0.83734  Biso   1.000  O
  O45      1.0000 0.16216  0.55267  0.66266  Biso   1.000  O
  O46      1.0000 0.66216  0.05267  0.16266  Biso   1.000  O
  O47      1.0000 0.33784  0.44733  0.66266  Biso   1.000  O
  O48      1.0000 0.83784  0.94733  0.16266  Biso   1.000  O
  N1       1.0000 0.09502  0.52851  0.05465  Biso   1.000  N
  N2       1.0000 0.59502  0.02851  0.55465  Biso   1.000  N
  N3       1.0000 0.40498  0.47149  0.05465  Biso   1.000  N
  N4       1.0000 0.90498  0.97149  0.55465  Biso   1.000  N
  N5       1.0000 0.90498  0.47149  0.94535  Biso   1.000  N
  N6       1.0000 0.40498  0.97149  0.44535  Biso   1.000  N
  N7       1.0000 0.59502  0.52851  0.94535  Biso   1.000  N
  N8       1.0000 0.09502  0.02851  0.44535  Biso   1.000  N
  H1       1.0000 0.14210  0.53120  0.03170  Biso   1.000  H
  H2       1.0000 0.64210  0.03120  0.53170  Biso   1.000  H
  H3       1.0000 0.35790  0.46880  0.03170  Biso   1.000  H
  H4       1.0000 0.85790  0.96880  0.53170  Biso   1.000  H
  H5       1.0000 0.85790  0.46880  0.96830  Biso   1.000  H
  H6       1.0000 0.35790  0.96880  0.46830  Biso   1.000  H
  H7       1.0000 0.64210  0.53120  0.96830  Biso   1.000  H
  H8       1.0000 0.14210  0.03120  0.46830  Biso   1.000  H
  N9       1.0000 0.15472  0.68441  0.20077  Biso   1.000  N
  N10      1.0000 0.65472  0.18441  0.70077  Biso   1.000  N
  N11      1.0000 0.34528  0.31559  0.20077  Biso   1.000  N
  N12      1.0000 0.84528  0.81559  0.70077  Biso   1.000  N
  N13      1.0000 0.84528  0.31559  0.79923  Biso   1.000  N
  N14      1.0000 0.34528  0.81559  0.29923  Biso   1.000  N
  N15      1.0000 0.65472  0.68441  0.79923  Biso   1.000  N
  N16      1.0000 0.15472  0.18441  0.29923  Biso   1.000  N
  H9       1.0000 0.20550  0.66940  0.19100  Biso   1.000  H
  H10      1.0000 0.70550  0.16940  0.69100  Biso   1.000  H
  H11      1.0000 0.29450  0.33060  0.19100  Biso   1.000  H
  H12      1.0000 0.79450  0.83060  0.69100  Biso   1.000  H
  H13      1.0000 0.79450  0.33060  0.80900  Biso   1.000  H
  H14      1.0000 0.29450  0.83060  0.30900  Biso   1.000  H
  H15      1.0000 0.70550  0.66940  0.80900  Biso   1.000  H
  H16      1.0000 0.20550  0.16940  0.30900  Biso   1.000  H
  N17      1.0000 0.10574  0.52552  0.45129  Biso   1.000  N
  N18      1.0000 0.60574  0.02552  0.95129  Biso   1.000  N
  N19      1.0000 0.39426  0.47448  0.45129  Biso   1.000  N
  N20      1.0000 0.89426  0.97448  0.95129  Biso   1.000  N
  N21      1.0000 0.89426  0.47448  0.54871  Biso   1.000  N
  N22      1.0000 0.39426  0.97448  0.04871  Biso   1.000  N
  N23      1.0000 0.60574  0.52552  0.54871  Biso   1.000  N
  N24      1.0000 0.10574  0.02552  0.04871  Biso   1.000  N
  H17      1.0000 0.15420  0.52900  0.47260  Biso   1.000  H
  H18      1.0000 0.65420  0.02900  0.97260  Biso   1.000  H
  H19      1.0000 0.34580  0.47100  0.47260  Biso   1.000  H
  H20      1.0000 0.84580  0.97100  0.97260  Biso   1.000  H
  H21      1.0000 0.84580  0.47100  0.52740  Biso   1.000  H
  H22      1.0000 0.34580  0.97100  0.02740  Biso   1.000  H
  H23      1.0000 0.65420  0.52900  0.52740  Biso   1.000  H
  H24      1.0000 0.15420  0.02900  0.02740  Biso   1.000  H
  C1       1.0000 0.86938  0.51656  0.17319  Biso   1.000  C
  C2       1.0000 0.36938  0.01656  0.67319  Biso   1.000  C
  C3       1.0000 0.63062  0.48344  0.17319  Biso   1.000  C
  C4       1.0000 0.13062  0.98344  0.67319  Biso   1.000  C
  C5       1.0000 0.13062  0.48344  0.82681  Biso   1.000  C
  C6       1.0000 0.63062  0.98344  0.32681  Biso   1.000  C
  C7       1.0000 0.36938  0.51656  0.82681  Biso   1.000  C
  C8       1.0000 0.86938  0.01656  0.32681  Biso   1.000  C
  C9       1.0000 0.94697  0.52058  0.12747  Biso   1.000  C
  C10      1.0000 0.44697  0.02058  0.62747  Biso   1.000  C
  C11      1.0000 0.55303  0.47942  0.12747  Biso   1.000  C
  C12      1.0000 0.05303  0.97942  0.62747  Biso   1.000  C
  C13      1.0000 0.05303  0.47942  0.87253  Biso   1.000  C
  C14      1.0000 0.55303  0.97942  0.37253  Biso   1.000  C
  C15      1.0000 0.44697  0.52058  0.87253  Biso   1.000  C
  C16      1.0000 0.94697  0.02058  0.37253  Biso   1.000  C
  C17      1.0000 0.00049  0.46370  0.12260  Biso   1.000  C
  C18      1.0000 0.50049  0.96370  0.62260  Biso   1.000  C
  C19      1.0000 0.49951  0.53630  0.12260  Biso   1.000  C
  C20      1.0000 0.99951  0.03630  0.62260  Biso   1.000  C
  C21      1.0000 0.99951  0.53630  0.87740  Biso   1.000  C
  C22      1.0000 0.49951  0.03630  0.37740  Biso   1.000  C
  C23      1.0000 0.50049  0.46370  0.87740  Biso   1.000  C
  C24      1.0000 0.00049  0.96370  0.37740  Biso   1.000  C
  H25      1.0000 0.98600  0.42160  0.14400  Biso   1.000  H
  H26      1.0000 0.48600  0.92160  0.64400  Biso   1.000  H
  H27      1.0000 0.51400  0.57840  0.14400  Biso   1.000  H
  H28      1.0000 0.01400  0.07840  0.64400  Biso   1.000  H
  H29      1.0000 0.01400  0.57840  0.85600  Biso   1.000  H
  H30      1.0000 0.51400  0.07840  0.35600  Biso   1.000  H
  H31      1.0000 0.48600  0.42160  0.85600  Biso   1.000  H
  H32      1.0000 0.98600  0.92160  0.35600  Biso   1.000  H
  C25      1.0000 0.07568  0.46990  0.08579  Biso   1.000  C
  C26      1.0000 0.57568  0.96990  0.58579  Biso   1.000  C
  C27      1.0000 0.42432  0.53010  0.08579  Biso   1.000  C
  C28      1.0000 0.92432  0.03010  0.58579  Biso   1.000  C
  C29      1.0000 0.92432  0.53010  0.91421  Biso   1.000  C
  C30      1.0000 0.42432  0.03010  0.41421  Biso   1.000  C
  C31      1.0000 0.57568  0.46990  0.91421  Biso   1.000  C
  C32      1.0000 0.07568  0.96990  0.41421  Biso   1.000  C
  H33      1.0000 0.11280  0.43220  0.08310  Biso   1.000  H
  H34      1.0000 0.61280  0.93220  0.58310  Biso   1.000  H
  H35      1.0000 0.38720  0.56780  0.08310  Biso   1.000  H
  H36      1.0000 0.88720  0.06780  0.58310  Biso   1.000  H
  H37      1.0000 0.88720  0.56780  0.91690  Biso   1.000  H
  H38      1.0000 0.38720  0.06780  0.41690  Biso   1.000  H
  H39      1.0000 0.61280  0.43220  0.91690  Biso   1.000  H
  H40      1.0000 0.11280  0.93220  0.41690  Biso   1.000  H
  C33      1.0000 0.04426  0.58452  0.05707  Biso   1.000  C
  C34      1.0000 0.54426  0.08452  0.55707  Biso   1.000  C
  C35      1.0000 0.45574  0.41548  0.05707  Biso   1.000  C
  C36      1.0000 0.95574  0.91548  0.55707  Biso   1.000  C
  C37      1.0000 0.95574  0.41548  0.94293  Biso   1.000  C
  C38      1.0000 0.45574  0.91548  0.44293  Biso   1.000  C
  C39      1.0000 0.54426  0.58452  0.94293  Biso   1.000  C
  C40      1.0000 0.04426  0.08452  0.44293  Biso   1.000  C
  H41      1.0000 0.06020  0.62540  0.03410  Biso   1.000  H
  H42      1.0000 0.56020  0.12540  0.53410  Biso   1.000  H
  H43      1.0000 0.43980  0.37460  0.03410  Biso   1.000  H
  H44      1.0000 0.93980  0.87460  0.53410  Biso   1.000  H
  H45      1.0000 0.93980  0.37460  0.96590  Biso   1.000  H
  H46      1.0000 0.43980  0.87460  0.46590  Biso   1.000  H
  H47      1.0000 0.56020  0.62540  0.96590  Biso   1.000  H
  H48      1.0000 0.06020  0.12540  0.46590  Biso   1.000  H
  C41      1.0000 0.96860  0.58190  0.09337  Biso   1.000  C
  C42      1.0000 0.46860  0.08190  0.59337  Biso   1.000  C
  C43      1.0000 0.53140  0.41810  0.09337  Biso   1.000  C
  C44      1.0000 0.03140  0.91810  0.59337  Biso   1.000  C
  C45      1.0000 0.03140  0.41810  0.90663  Biso   1.000  C
  C46      1.0000 0.53140  0.91810  0.40663  Biso   1.000  C
  C47      1.0000 0.46860  0.58190  0.90663  Biso   1.000  C
  C48      1.0000 0.96860  0.08190  0.40663  Biso   1.000  C
  H49      1.0000 0.93270  0.62050  0.09500  Biso   1.000  H
  H50      1.0000 0.43270  0.12050  0.59500  Biso   1.000  H
  H51      1.0000 0.56730  0.37950  0.09500  Biso   1.000  H
  H52      1.0000 0.06730  0.87950  0.59500  Biso   1.000  H
  H53      1.0000 0.06730  0.37950  0.90500  Biso   1.000  H
  H54      1.0000 0.56730  0.87950  0.40500  Biso   1.000  H
  H55      1.0000 0.43270  0.62050  0.90500  Biso   1.000  H
  H56      1.0000 0.93270  0.12050  0.40500  Biso   1.000  H
  C49      1.0000 0.90063  0.75353  0.23947  Biso   1.000  C
  C50      1.0000 0.40063  0.25353  0.73947  Biso   1.000  C
  C51      1.0000 0.59937  0.24647  0.23947  Biso   1.000  C
  C52      1.0000 0.09937  0.74647  0.73947  Biso   1.000  C
  C53      1.0000 0.09937  0.24647  0.76053  Biso   1.000  C
  C54      1.0000 0.59937  0.74647  0.26053  Biso   1.000  C
  C55      1.0000 0.40063  0.75353  0.76053  Biso   1.000  C
  C56      1.0000 0.90063  0.25353  0.26053  Biso   1.000  C
  C57      1.0000 0.99282  0.72985  0.22751  Biso   1.000  C
  C58      1.0000 0.49282  0.22985  0.72751  Biso   1.000  C
  C59      1.0000 0.50718  0.27015  0.22751  Biso   1.000  C
  C60      1.0000 0.00718  0.77015  0.72751  Biso   1.000  C
  C61      1.0000 0.00718  0.27015  0.77249  Biso   1.000  C
  C62      1.0000 0.50718  0.77015  0.27249  Biso   1.000  C
  C63      1.0000 0.49282  0.72985  0.77249  Biso   1.000  C
  C64      1.0000 0.99282  0.22985  0.27249  Biso   1.000  C
  C65      1.0000 0.01325  0.66033  0.23768  Biso   1.000  C
  C66      1.0000 0.51325  0.16033  0.73768  Biso   1.000  C
  C67      1.0000 0.48675  0.33967  0.23768  Biso   1.000  C
  C68      1.0000 0.98675  0.83967  0.73768  Biso   1.000  C
  C69      1.0000 0.98675  0.33967  0.76232  Biso   1.000  C
  C70      1.0000 0.48675  0.83967  0.26232  Biso   1.000  C
  C71      1.0000 0.51325  0.66033  0.76232  Biso   1.000  C
  C72      1.0000 0.01325  0.16033  0.26232  Biso   1.000  C
  H57      1.0000 0.97100  0.62830  0.25380  Biso   1.000  H
  H58      1.0000 0.47100  0.12830  0.75380  Biso   1.000  H
  H59      1.0000 0.52900  0.37170  0.25380  Biso   1.000  H
  H60      1.0000 0.02900  0.87170  0.75380  Biso   1.000  H
  H61      1.0000 0.02900  0.37170  0.74620  Biso   1.000  H
  H62      1.0000 0.52900  0.87170  0.24620  Biso   1.000  H
  H63      1.0000 0.47100  0.62830  0.74620  Biso   1.000  H
  H64      1.0000 0.97100  0.12830  0.24620  Biso   1.000  H
  C73      1.0000 0.09533  0.63853  0.22413  Biso   1.000  C
  C74      1.0000 0.59533  0.13853  0.72413  Biso   1.000  C
  C75      1.0000 0.40467  0.36147  0.22413  Biso   1.000  C
  C76      1.0000 0.90467  0.86147  0.72413  Biso   1.000  C
  C77      1.0000 0.90467  0.36147  0.77587  Biso   1.000  C
  C78      1.0000 0.40467  0.86147  0.27587  Biso   1.000  C
  C79      1.0000 0.59533  0.63853  0.77587  Biso   1.000  C
  C80      1.0000 0.09533  0.13853  0.27587  Biso   1.000  C
  H65      1.0000 0.10950  0.59180  0.23130  Biso   1.000  H
  H66      1.0000 0.60950  0.09180  0.73130  Biso   1.000  H
  H67      1.0000 0.39050  0.40820  0.23130  Biso   1.000  H
  H68      1.0000 0.89050  0.90820  0.73130  Biso   1.000  H
  H69      1.0000 0.89050  0.40820  0.76870  Biso   1.000  H
  H70      1.0000 0.39050  0.90820  0.26870  Biso   1.000  H
  H71      1.0000 0.60950  0.59180  0.76870  Biso   1.000  H
  H72      1.0000 0.10950  0.09180  0.26870  Biso   1.000  H
  C81      1.0000 0.14001  0.75265  0.19152  Biso   1.000  C
  C82      1.0000 0.64001  0.25265  0.69152  Biso   1.000  C
  C83      1.0000 0.35999  0.24735  0.19152  Biso   1.000  C
  C84      1.0000 0.85999  0.74735  0.69152  Biso   1.000  C
  C85      1.0000 0.85999  0.24735  0.80848  Biso   1.000  C
  C86      1.0000 0.35999  0.74735  0.30848  Biso   1.000  C
  C87      1.0000 0.64001  0.75265  0.80848  Biso   1.000  C
  C88      1.0000 0.14001  0.25265  0.30848  Biso   1.000  C
  H73      1.0000 0.18420  0.78350  0.17630  Biso   1.000  H
  H74      1.0000 0.68420  0.28350  0.67630  Biso   1.000  H
  H75      1.0000 0.31580  0.21650  0.17630  Biso   1.000  H
  H76      1.0000 0.81580  0.71650  0.67630  Biso   1.000  H
  H77      1.0000 0.81580  0.21650  0.82370  Biso   1.000  H
  H78      1.0000 0.31580  0.71650  0.32370  Biso   1.000  H
  H79      1.0000 0.68420  0.78350  0.82370  Biso   1.000  H
  H80      1.0000 0.18420  0.28350  0.32370  Biso   1.000  H
  C89      1.0000 0.05715  0.77670  0.20520  Biso   1.000  C
  C90      1.0000 0.55715  0.27670  0.70520  Biso   1.000  C
  C91      1.0000 0.44285  0.22330  0.20520  Biso   1.000  C
  C92      1.0000 0.94285  0.72330  0.70520  Biso   1.000  C
  C93      1.0000 0.94285  0.22330  0.79480  Biso   1.000  C
  C94      1.0000 0.44285  0.72330  0.29480  Biso   1.000  C
  C95      1.0000 0.55715  0.77670  0.79480  Biso   1.000  C
  C96      1.0000 0.05715  0.27670  0.29480  Biso   1.000  C
  H81      1.0000 0.04520  0.82410  0.19930  Biso   1.000  H
  H82      1.0000 0.54520  0.32410  0.69930  Biso   1.000  H
  H83      1.0000 0.45480  0.17590  0.19930  Biso   1.000  H
  H84      1.0000 0.95480  0.67590  0.69930  Biso   1.000  H
  H85      1.0000 0.95480  0.17590  0.80070  Biso   1.000  H
  H86      1.0000 0.45480  0.67590  0.30070  Biso   1.000  H
  H87      1.0000 0.54520  0.82410  0.80070  Biso   1.000  H
  H88      1.0000 0.04520  0.32410  0.30070  Biso   1.000  H
  C97      1.0000 0.87196  0.50844  0.34192  Biso   1.000  C
  C98      1.0000 0.37196  0.00844  0.84192  Biso   1.000  C
  C99      1.0000 0.62804  0.49156  0.34192  Biso   1.000  C
  C100     1.0000 0.12804  0.99156  0.84192  Biso   1.000  C
  C101     1.0000 0.12804  0.49156  0.65808  Biso   1.000  C
  C102     1.0000 0.62804  0.99156  0.15808  Biso   1.000  C
  C103     1.0000 0.37196  0.50844  0.65808  Biso   1.000  C
  C104     1.0000 0.87196  0.00844  0.15808  Biso   1.000  C
  C105     1.0000 0.95400  0.51514  0.38322  Biso   1.000  C
  C106     1.0000 0.45400  0.01514  0.88322  Biso   1.000  C
  C107     1.0000 0.54600  0.48486  0.38322  Biso   1.000  C
  C108     1.0000 0.04600  0.98486  0.88322  Biso   1.000  C
  C109     1.0000 0.04600  0.48486  0.61678  Biso   1.000  C
  C110     1.0000 0.54600  0.98486  0.11678  Biso   1.000  C
  C111     1.0000 0.45400  0.51514  0.61678  Biso   1.000  C
  C112     1.0000 0.95400  0.01514  0.11678  Biso   1.000  C
  C113     1.0000 0.99631  0.45560  0.40224  Biso   1.000  C
  C114     1.0000 0.49631  0.95560  0.90224  Biso   1.000  C
  C115     1.0000 0.50369  0.54440  0.40224  Biso   1.000  C
  C116     1.0000 0.00369  0.04440  0.90224  Biso   1.000  C
  C117     1.0000 0.00369  0.54440  0.59776  Biso   1.000  C
  C118     1.0000 0.50369  0.04440  0.09776  Biso   1.000  C
  C119     1.0000 0.49631  0.45560  0.59776  Biso   1.000  C
  C120     1.0000 0.99631  0.95560  0.09776  Biso   1.000  C
  H89      1.0000 0.97290  0.41090  0.39210  Biso   1.000  H
  H90      1.0000 0.47290  0.91090  0.89210  Biso   1.000  H
  H91      1.0000 0.52710  0.58910  0.39210  Biso   1.000  H
  H92      1.0000 0.02710  0.08910  0.89210  Biso   1.000  H
  H93      1.0000 0.02710  0.58910  0.60790  Biso   1.000  H
  H94      1.0000 0.52710  0.08910  0.10790  Biso   1.000  H
  H95      1.0000 0.47290  0.41090  0.60790  Biso   1.000  H
  H96      1.0000 0.97290  0.91090  0.10790  Biso   1.000  H
  C121     1.0000 0.07372  0.46292  0.43645  Biso   1.000  C
  C122     1.0000 0.57372  0.96292  0.93645  Biso   1.000  C
  C123     1.0000 0.42628  0.53708  0.43645  Biso   1.000  C
  C124     1.0000 0.92628  0.03708  0.93645  Biso   1.000  C
  C125     1.0000 0.92628  0.53708  0.56355  Biso   1.000  C
  C126     1.0000 0.42628  0.03708  0.06355  Biso   1.000  C
  C127     1.0000 0.57372  0.46292  0.56355  Biso   1.000  C
  C128     1.0000 0.07372  0.96292  0.06355  Biso   1.000  C
  H97      1.0000 0.10320  0.42300  0.44890  Biso   1.000  H
  H98      1.0000 0.60320  0.92300  0.94890  Biso   1.000  H
  H99      1.0000 0.39680  0.57700  0.44890  Biso   1.000  H
  H100     1.0000 0.89680  0.07700  0.94890  Biso   1.000  H
  H101     1.0000 0.89680  0.57700  0.55110  Biso   1.000  H
  H102     1.0000 0.39680  0.07700  0.05110  Biso   1.000  H
  H103     1.0000 0.60320  0.42300  0.55110  Biso   1.000  H
  H104     1.0000 0.10320  0.92300  0.05110  Biso   1.000  H
  C129     1.0000 0.06674  0.58384  0.43491  Biso   1.000  C
  C130     1.0000 0.56674  0.08384  0.93491  Biso   1.000  C
  C131     1.0000 0.43326  0.41616  0.43491  Biso   1.000  C
  C132     1.0000 0.93326  0.91616  0.93491  Biso   1.000  C
  C133     1.0000 0.93326  0.41616  0.56509  Biso   1.000  C
  C134     1.0000 0.43326  0.91616  0.06509  Biso   1.000  C
  C135     1.0000 0.56674  0.58384  0.56509  Biso   1.000  C
  C136     1.0000 0.06674  0.08384  0.06509  Biso   1.000  C
  H105     1.0000 0.09170  0.62750  0.44670  Biso   1.000  H
  H106     1.0000 0.59170  0.12750  0.94670  Biso   1.000  H
  H107     1.0000 0.40830  0.37250  0.44670  Biso   1.000  H
  H108     1.0000 0.90830  0.87250  0.94670  Biso   1.000  H
  H109     1.0000 0.90830  0.37250  0.55330  Biso   1.000  H
  H110     1.0000 0.40830  0.87250  0.05330  Biso   1.000  H
  H111     1.0000 0.59170  0.62750  0.55330  Biso   1.000  H
  H112     1.0000 0.09170  0.12750  0.05330  Biso   1.000  H
  C137     1.0000 0.98922  0.58078  0.40043  Biso   1.000  C
  C138     1.0000 0.48922  0.08078  0.90043  Biso   1.000  C
  C139     1.0000 0.51078  0.41922  0.40043  Biso   1.000  C
  C140     1.0000 0.01078  0.91922  0.90043  Biso   1.000  C
  C141     1.0000 0.01078  0.41922  0.59957  Biso   1.000  C
  C142     1.0000 0.51078  0.91922  0.09957  Biso   1.000  C
  C143     1.0000 0.48922  0.58078  0.59957  Biso   1.000  C
  C144     1.0000 0.98922  0.08078  0.09957  Biso   1.000  C
  H113     1.0000 0.96140  0.62190  0.38910  Biso   1.000  H
  H114     1.0000 0.46140  0.12190  0.88910  Biso   1.000  H
  H115     1.0000 0.53860  0.37810  0.38910  Biso   1.000  H
  H116     1.0000 0.03860  0.87810  0.88910  Biso   1.000  H
  H117     1.0000 0.03860  0.37810  0.61090  Biso   1.000  H
  H118     1.0000 0.53860  0.87810  0.11090  Biso   1.000  H
  H119     1.0000 0.46140  0.62190  0.61090  Biso   1.000  H
  H120     1.0000 0.96140  0.12190  0.11090  Biso   1.000  H
  O49      1.0000 0.74326  0.68119  0.35923  Biso   1.000  O
  O50      1.0000 0.24326  0.18119  0.85923  Biso   1.000  O
  O51      1.0000 0.75674  0.31881  0.35923  Biso   1.000  O
  O52      1.0000 0.25674  0.81881  0.85923  Biso   1.000  O
  O53      1.0000 0.25674  0.31881  0.64077  Biso   1.000  O
  O54      1.0000 0.75674  0.81881  0.14077  Biso   1.000  O
  O55      1.0000 0.24326  0.68119  0.64077  Biso   1.000  O
  O56      1.0000 0.74326  0.18119  0.14077  Biso   1.000  O
  H121     1.0000 0.75860  0.72260  0.35270  Biso   1.000  H
  H122     1.0000 0.25860  0.22260  0.85270  Biso   1.000  H
  H123     1.0000 0.74140  0.27740  0.35270  Biso   1.000  H
  H124     1.0000 0.24140  0.77740  0.85270  Biso   1.000  H
  H125     1.0000 0.24140  0.27740  0.64730  Biso   1.000  H
  H126     1.0000 0.74140  0.77740  0.14730  Biso   1.000  H
  H127     1.0000 0.25860  0.72260  0.64730  Biso   1.000  H
  H128     1.0000 0.75860  0.22260  0.14730  Biso   1.000  H
  O57      1.0000 0.71029  0.67159  0.15060  Biso   1.000  O
  O58      1.0000 0.21029  0.17159  0.65060  Biso   1.000  O
  O59      1.0000 0.78971  0.32841  0.15060  Biso   1.000  O
  O60      1.0000 0.28971  0.82841  0.65060  Biso   1.000  O
  O61      1.0000 0.28971  0.32841  0.84940  Biso   1.000  O
  O62      1.0000 0.78971  0.82841  0.34940  Biso   1.000  O
  O63      1.0000 0.21029  0.67159  0.84940  Biso   1.000  O
  O64      1.0000 0.71029  0.17159  0.34940  Biso   1.000  O
  H129     1.0000 0.65860  0.68150  0.14780  Biso   1.000  H
  H130     1.0000 0.15860  0.18150  0.64780  Biso   1.000  H
  H131     1.0000 0.84140  0.31850  0.14780  Biso   1.000  H
  H132     1.0000 0.34140  0.81850  0.64780  Biso   1.000  H
  H133     1.0000 0.34140  0.31850  0.85220  Biso   1.000  H
  H134     1.0000 0.84140  0.81850  0.35220  Biso   1.000  H
  H135     1.0000 0.15860  0.68150  0.85220  Biso   1.000  H
  H136     1.0000 0.65860  0.18150  0.35220  Biso   1.000  H
  O65      1.0000 0.25414  0.57891  0.52300  Biso   1.000  O
  O66      1.0000 0.75414  0.07891  0.02300  Biso   1.000  O
  O67      1.0000 0.24586  0.42109  0.52300  Biso   1.000  O
  O68      1.0000 0.74586  0.92109  0.02300  Biso   1.000  O
  O69      1.0000 0.74586  0.42109  0.47700  Biso   1.000  O
  O70      1.0000 0.24586  0.92109  0.97700  Biso   1.000  O
  O71      1.0000 0.75414  0.57891  0.47700  Biso   1.000  O
  O72      1.0000 0.25414  0.07891  0.97700  Biso   1.000  O
  O73      1.0000 0.55566  0.71878  0.10392  Biso   1.000  O
  O74      1.0000 0.05566  0.21878  0.60392  Biso   1.000  O
  O75      1.0000 0.94434  0.28122  0.10392  Biso   1.000  O
  O76      1.0000 0.44434  0.78122  0.60392  Biso   1.000  O
  O77      1.0000 0.44434  0.28122  0.89608  Biso   1.000  O
  O78      1.0000 0.94434  0.78122  0.39608  Biso   1.000  O
  O79      1.0000 0.05566  0.71878  0.89608  Biso   1.000  O
  O80      1.0000 0.55566  0.21878  0.39608  Biso   1.000  O
  H137     1.0000 0.24500  0.58200  0.55040  Biso   1.000  H
  H138     1.0000 0.74500  0.08200  0.05040  Biso   1.000  H
  H139     1.0000 0.25500  0.41800  0.55040  Biso   1.000  H
  H140     1.0000 0.75500  0.91800  0.05040  Biso   1.000  H
  H141     1.0000 0.75500  0.41800  0.44960  Biso   1.000  H
  H142     1.0000 0.25500  0.91800  0.94960  Biso   1.000  H
  H143     1.0000 0.74500  0.58200  0.44960  Biso   1.000  H
  H144     1.0000 0.24500  0.08200  0.94960  Biso   1.000  H
  H145     1.0000 0.51570  0.71770  0.11070  Biso   1.000  H
  H146     1.0000 0.01570  0.21770  0.61070  Biso   1.000  H
  H147     1.0000 0.98430  0.28230  0.11070  Biso   1.000  H
  H148     1.0000 0.48430  0.78230  0.61070  Biso   1.000  H
  H149     1.0000 0.48430  0.28230  0.88930  Biso   1.000  H
  H150     1.0000 0.98430  0.78230  0.38930  Biso   1.000  H
  H151     1.0000 0.01570  0.71770  0.88930  Biso   1.000  H
  H152     1.0000 0.51570  0.21770  0.38930  Biso   1.000  H
  H153     1.0000 0.57690  0.73790  0.06780  Biso   1.000  H
  H154     1.0000 0.07690  0.23790  0.56780  Biso   1.000  H
  H155     1.0000 0.92310  0.26210  0.06780  Biso   1.000  H
  H156     1.0000 0.42310  0.76210  0.56780  Biso   1.000  H
  H157     1.0000 0.42310  0.26210  0.93220  Biso   1.000  H
  H158     1.0000 0.92310  0.76210  0.43220  Biso   1.000  H
  H159     1.0000 0.07690  0.73790  0.93220  Biso   1.000  H
  H160     1.0000 0.57690  0.23790  0.43220  Biso   1.000  H
