data_image0
_cell_length_a       9.9227
_cell_length_b       13.7296
_cell_length_c       18.8301
_cell_angle_alpha    90
_cell_angle_beta     102.673
_cell_angle_gamma    90

_symmetry_space_group_name_H-M    "P 1"
_symmetry_int_tables_number       1

loop_
  _symmetry_equiv_pos_as_xyz
  'x, y, z'

loop_
  _atom_site_label
  _atom_site_occupancy
  _atom_site_fract_x
  _atom_site_fract_y
  _atom_site_fract_z
  _atom_site_thermal_displace_type
  _atom_site_B_iso_or_equiv
  _atom_site_type_symbol
  Mn1      1.0000 0.30520  0.06480  0.19460  Biso   1.000  Mn
  Mn2      1.0000 0.19480  0.56480  0.30540  Biso   1.000  Mn
  Mn3      1.0000 0.69480  0.93520  0.80540  Biso   1.000  Mn
  Mn4      1.0000 0.80520  0.43520  0.69460  Biso   1.000  Mn
  O1       1.0000 0.32680  0.19250  0.16000  Biso   1.000  O
  O2       1.0000 0.17320  0.69250  0.34000  Biso   1.000  O
  O3       1.0000 0.67320  0.80750  0.84000  Biso   1.000  O
  O4       1.0000 0.82680  0.30750  0.66000  Biso   1.000  O
  O5       1.0000 0.53200  0.03190  0.19980  Biso   1.000  O
  O6       1.0000 0.96800  0.53190  0.30020  Biso   1.000  O
  O7       1.0000 0.46800  0.96810  0.80020  Biso   1.000  O
  O8       1.0000 0.03200  0.46810  0.69980  Biso   1.000  O
  O9       1.0000 0.36000  0.10640  0.29190  Biso   1.000  O
  O10      1.0000 0.14000  0.60640  0.20810  Biso   1.000  O
  O11      1.0000 0.64000  0.89360  0.70810  Biso   1.000  O
  O12      1.0000 0.86000  0.39360  0.79190  Biso   1.000  O
  N1       1.0000 0.28220  0.92920  0.23120  Biso   1.000  N
  N2       1.0000 0.21780  0.42920  0.26880  Biso   1.000  N
  N3       1.0000 0.71780  0.07080  0.76880  Biso   1.000  N
  N4       1.0000 0.78220  0.57080  0.73120  Biso   1.000  N
  O13      1.0000 0.67360  0.99030  0.13140  Biso   1.000  O
  O14      1.0000 0.82640  0.49030  0.36860  Biso   1.000  O
  O15      1.0000 0.32640  0.00970  0.86860  Biso   1.000  O
  O16      1.0000 0.17360  0.50970  0.63140  Biso   1.000  O
  N5       1.0000 0.27490  0.01750  0.09000  Biso   1.000  N
  N6       1.0000 0.22510  0.51750  0.41000  Biso   1.000  N
  N7       1.0000 0.72510  0.98250  0.91000  Biso   1.000  N
  N8       1.0000 0.77490  0.48250  0.59000  Biso   1.000  N
  O17      1.0000 0.42080  0.37180  0.15830  Biso   1.000  O
  O18      1.0000 0.07920  0.87180  0.34170  Biso   1.000  O
  O19      1.0000 0.57920  0.62820  0.84170  Biso   1.000  O
  O20      1.0000 0.92080  0.12820  0.65830  Biso   1.000  O
  O21      1.0000 0.53380  0.20450  0.39410  Biso   1.000  O
  O22      1.0000 0.96620  0.70450  0.10590  Biso   1.000  O
  O23      1.0000 0.46620  0.79550  0.60590  Biso   1.000  O
  O24      1.0000 0.03380  0.29550  0.89410  Biso   1.000  O
  C1       1.0000 0.33890  0.05830  0.04490  Biso   1.000  C
  C2       1.0000 0.16110  0.55830  0.45510  Biso   1.000  C
  C3       1.0000 0.66110  0.94170  0.95510  Biso   1.000  C
  C4       1.0000 0.83890  0.44170  0.54490  Biso   1.000  C
  C5       1.0000 0.39500  0.21500  0.10930  Biso   1.000  C
  C6       1.0000 0.10500  0.71500  0.39070  Biso   1.000  C
  C7       1.0000 0.60500  0.78500  0.89070  Biso   1.000  C
  C8       1.0000 0.89500  0.28500  0.60930  Biso   1.000  C
  C9       1.0000 0.44580  0.05650  0.34340  Biso   1.000  C
  C10      1.0000 0.05420  0.55650  0.15660  Biso   1.000  C
  C11      1.0000 0.55420  0.94350  0.65660  Biso   1.000  C
  C12      1.0000 0.94580  0.44350  0.84340  Biso   1.000  C
  C13      1.0000 0.44940  0.31020  0.10750  Biso   1.000  C
  C14      1.0000 0.05060  0.81020  0.39250  Biso   1.000  C
  C15      1.0000 0.55060  0.68980  0.89250  Biso   1.000  C
  C16      1.0000 0.94940  0.18980  0.60750  Biso   1.000  C
  C17      1.0000 0.41150  0.14950  0.05460  Biso   1.000  C
  C18      1.0000 0.08850  0.64950  0.44540  Biso   1.000  C
  C19      1.0000 0.58850  0.85050  0.94540  Biso   1.000  C
  C20      1.0000 0.91150  0.35050  0.55460  Biso   1.000  C
  C21      1.0000 0.64040  0.04480  0.17960  Biso   1.000  C
  C22      1.0000 0.85960  0.54480  0.32040  Biso   1.000  C
  C23      1.0000 0.35960  0.95520  0.82040  Biso   1.000  C
  C24      1.0000 0.14040  0.45520  0.67960  Biso   1.000  C
  C25      1.0000 0.19090  0.93160  0.06320  Biso   1.000  C
  C26      1.0000 0.30910  0.43160  0.43680  Biso   1.000  C
  C27      1.0000 0.80910  0.06840  0.93680  Biso   1.000  C
  C28      1.0000 0.69090  0.56840  0.56320  Biso   1.000  C
  C29      1.0000 0.44490  0.95360  0.34640  Biso   1.000  C
  C30      1.0000 0.05510  0.45360  0.15360  Biso   1.000  C
  C31      1.0000 0.55510  0.04640  0.65360  Biso   1.000  C
  C32      1.0000 0.94490  0.54640  0.84640  Biso   1.000  C
  C33      1.0000 0.34930  0.89890  0.29350  Biso   1.000  C
  C34      1.0000 0.15070  0.39890  0.20650  Biso   1.000  C
  C35      1.0000 0.65070  0.10110  0.70650  Biso   1.000  C
  C36      1.0000 0.84930  0.60110  0.79350  Biso   1.000  C
  C37      1.0000 0.73990  0.27610  0.28220  Biso   1.000  C
  C38      1.0000 0.76010  0.77610  0.21780  Biso   1.000  C
  C39      1.0000 0.26010  0.72390  0.71780  Biso   1.000  C
  C40      1.0000 0.23990  0.22390  0.78220  Biso   1.000  C
  C41      1.0000 0.48570  0.17650  0.00250  Biso   1.000  C
  C42      1.0000 0.01430  0.67650  0.49750  Biso   1.000  C
  C43      1.0000 0.51430  0.82350  0.99750  Biso   1.000  C
  C44      1.0000 0.98570  0.32350  0.50250  Biso   1.000  C
  C45      1.0000 0.67040  0.19620  0.24920  Biso   1.000  C
  C46      1.0000 0.82960  0.69620  0.25080  Biso   1.000  C
  C47      1.0000 0.32960  0.80380  0.75080  Biso   1.000  C
  C48      1.0000 0.17040  0.30380  0.74920  Biso   1.000  C
  C49      1.0000 0.18820  0.85860  0.18650  Biso   1.000  C
  C50      1.0000 0.31180  0.35860  0.31350  Biso   1.000  C
  C51      1.0000 0.81180  0.14140  0.81350  Biso   1.000  C
  C52      1.0000 0.68820  0.64140  0.68650  Biso   1.000  C
  C53      1.0000 0.73240  0.12780  0.21250  Biso   1.000  C
  C54      1.0000 0.76760  0.62780  0.28750  Biso   1.000  C
  C55      1.0000 0.26760  0.87220  0.78750  Biso   1.000  C
  C56      1.0000 0.23240  0.37220  0.71250  Biso   1.000  C
  C57      1.0000 0.54060  0.10520  0.39790  Biso   1.000  C
  C58      1.0000 0.95940  0.60520  0.10210  Biso   1.000  C
  C59      1.0000 0.45940  0.89480  0.60210  Biso   1.000  C
  C60      1.0000 0.04060  0.39480  0.89790  Biso   1.000  C
  C61      1.0000 0.52500  0.33260  0.05660  Biso   1.000  C
  C62      1.0000 0.97500  0.83260  0.44340  Biso   1.000  C
  C63      1.0000 0.47500  0.66740  0.94340  Biso   1.000  C
  C64      1.0000 0.02500  0.16740  0.55660  Biso   1.000  C
  C65      1.0000 0.53620  0.90390  0.40200  Biso   1.000  C
  C66      1.0000 0.96380  0.40390  0.09800  Biso   1.000  C
  C67      1.0000 0.46380  0.09610  0.59800  Biso   1.000  C
  C68      1.0000 0.03620  0.59610  0.90200  Biso   1.000  C
  C69      1.0000 0.62820  0.25730  0.44820  Biso   1.000  C
  C70      1.0000 0.87180  0.75730  0.05180  Biso   1.000  C
  C71      1.0000 0.37180  0.74270  0.55180  Biso   1.000  C
  C72      1.0000 0.12820  0.24270  0.94820  Biso   1.000  C
  C73      1.0000 0.87720  0.28730  0.28280  Biso   1.000  C
  C74      1.0000 0.62280  0.78730  0.21720  Biso   1.000  C
  C75      1.0000 0.12280  0.71270  0.71720  Biso   1.000  C
  C76      1.0000 0.37720  0.21270  0.78280  Biso   1.000  C
  C77      1.0000 0.22540  0.84520  0.11330  Biso   1.000  C
  C78      1.0000 0.27460  0.34520  0.38670  Biso   1.000  C
  C79      1.0000 0.77460  0.15480  0.88670  Biso   1.000  C
  C80      1.0000 0.72540  0.65480  0.61330  Biso   1.000  C
  C81      1.0000 0.45960  0.47030  0.15360  Biso   1.000  C
  C82      1.0000 0.04040  0.97030  0.34640  Biso   1.000  C
  C83      1.0000 0.54040  0.52970  0.84640  Biso   1.000  C
  C84      1.0000 0.95960  0.02970  0.65360  Biso   1.000  C
  C85      1.0000 0.63160  0.05470  0.45070  Biso   1.000  C
  C86      1.0000 0.86840  0.55470  0.04930  Biso   1.000  C
  C87      1.0000 0.36840  0.94530  0.54930  Biso   1.000  C
  C88      1.0000 0.13160  0.44530  0.95070  Biso   1.000  C
  C89      1.0000 0.54420  0.26650  0.00510  Biso   1.000  C
  C90      1.0000 0.95580  0.76650  0.49490  Biso   1.000  C
  C91      1.0000 0.45580  0.73350  0.99490  Biso   1.000  C
  C92      1.0000 0.04420  0.23350  0.50510  Biso   1.000  C
  C93      1.0000 0.62830  0.95300  0.45180  Biso   1.000  C
  C94      1.0000 0.87170  0.45300  0.04820  Biso   1.000  C
  C95      1.0000 0.37170  0.04700  0.54820  Biso   1.000  C
  C96      1.0000 0.12830  0.54700  0.95180  Biso   1.000  C
  O25      1.0000 0.90820  0.01570  0.12720  Biso   1.000  O
  O26      1.0000 0.59180  0.51570  0.37280  Biso   1.000  O
  O27      1.0000 0.09180  0.98430  0.87280  Biso   1.000  O
  O28      1.0000 0.40820  0.48430  0.62720  Biso   1.000  O
  C97      1.0000 0.87390  0.14090  0.21030  Biso   1.000  C
  C98      1.0000 0.62610  0.64090  0.28970  Biso   1.000  C
  C99      1.0000 0.12610  0.85910  0.78970  Biso   1.000  C
  C100     1.0000 0.37390  0.35910  0.71030  Biso   1.000  C
  C101     1.0000 0.96140  0.07970  0.17300  Biso   1.000  C
  C102     1.0000 0.53860  0.57970  0.32700  Biso   1.000  C
  C103     1.0000 0.03860  0.92030  0.82700  Biso   1.000  C
  C104     1.0000 0.46140  0.42030  0.67300  Biso   1.000  C
  C105     1.0000 0.94070  0.22020  0.24910  Biso   1.000  C
  C106     1.0000 0.55930  0.72020  0.25090  Biso   1.000  C
  C107     1.0000 0.05930  0.77980  0.75090  Biso   1.000  C
  C108     1.0000 0.44070  0.27980  0.74910  Biso   1.000  C
  O29      1.0000 0.08820  0.09520  0.18820  Biso   1.000  O
  O30      1.0000 0.41180  0.59520  0.31180  Biso   1.000  O
  O31      1.0000 0.91180  0.90480  0.81180  Biso   1.000  O
  O32      1.0000 0.58820  0.40480  0.68820  Biso   1.000  O
  H1       1.0000 0.33790  0.02500  0.00180  Biso   1.000  H
  H2       1.0000 0.16210  0.52500  0.49820  Biso   1.000  H
  H3       1.0000 0.66210  0.97500  0.99820  Biso   1.000  H
  H4       1.0000 0.83790  0.47500  0.50180  Biso   1.000  H
  H5       1.0000 0.20530  0.91430  0.01550  Biso   1.000  H
  H6       1.0000 0.29470  0.41430  0.48450  Biso   1.000  H
  H7       1.0000 0.79470  0.08570  0.98450  Biso   1.000  H
  H8       1.0000 0.70530  0.58570  0.51550  Biso   1.000  H
  H9       1.0000 0.09410  0.94770  0.05800  Biso   1.000  H
  H10      1.0000 0.40590  0.44770  0.44200  Biso   1.000  H
  H11      1.0000 0.90590  0.05230  0.94200  Biso   1.000  H
  H12      1.0000 0.59410  0.55230  0.55800  Biso   1.000  H
  H13      1.0000 0.33410  0.83470  0.30540  Biso   1.000  H
  H14      1.0000 0.16590  0.33470  0.19460  Biso   1.000  H
  H15      1.0000 0.66590  0.16530  0.69460  Biso   1.000  H
  H16      1.0000 0.83410  0.66530  0.80540  Biso   1.000  H
  H17      1.0000 0.69400  0.32250  0.30400  Biso   1.000  H
  H18      1.0000 0.80600  0.82250  0.19600  Biso   1.000  H
  H19      1.0000 0.30600  0.67750  0.69600  Biso   1.000  H
  H20      1.0000 0.19400  0.17750  0.80400  Biso   1.000  H
  H21      1.0000 0.49500  0.13300  0.96600  Biso   1.000  H
  H22      1.0000 0.00500  0.63300  0.53400  Biso   1.000  H
  H23      1.0000 0.50500  0.86700  0.03400  Biso   1.000  H
  H24      1.0000 0.99500  0.36700  0.46600  Biso   1.000  H
  H25      1.0000 0.57850  0.18750  0.25150  Biso   1.000  H
  H26      1.0000 0.92150  0.68750  0.24850  Biso   1.000  H
  H27      1.0000 0.42150  0.81250  0.74850  Biso   1.000  H
  H28      1.0000 0.07850  0.31250  0.75150  Biso   1.000  H
  H29      1.0000 0.09380  0.88170  0.17940  Biso   1.000  H
  H30      1.0000 0.40620  0.38170  0.32060  Biso   1.000  H
  H31      1.0000 0.90620  0.11830  0.82060  Biso   1.000  H
  H32      1.0000 0.59380  0.61830  0.67940  Biso   1.000  H
  H33      1.0000 0.19440  0.79650  0.21160  Biso   1.000  H
  H34      1.0000 0.30560  0.29650  0.28840  Biso   1.000  H
  H35      1.0000 0.80560  0.20350  0.78840  Biso   1.000  H
  H36      1.0000 0.69440  0.70350  0.71160  Biso   1.000  H
  H37      1.0000 0.56410  0.39420  0.05720  Biso   1.000  H
  H38      1.0000 0.93590  0.89420  0.44280  Biso   1.000  H
  H39      1.0000 0.43590  0.60580  0.94280  Biso   1.000  H
  H40      1.0000 0.06410  0.10580  0.55720  Biso   1.000  H
  H41      1.0000 0.53280  0.83630  0.40420  Biso   1.000  H
  H42      1.0000 0.96720  0.33630  0.09580  Biso   1.000  H
  H43      1.0000 0.46720  0.16370  0.59580  Biso   1.000  H
  H44      1.0000 0.03280  0.66370  0.90420  Biso   1.000  H
  H45      1.0000 0.61380  0.32590  0.44000  Biso   1.000  H
  H46      1.0000 0.88620  0.82590  0.06000  Biso   1.000  H
  H47      1.0000 0.38620  0.67410  0.56000  Biso   1.000  H
  H48      1.0000 0.11380  0.17410  0.94000  Biso   1.000  H
  H49      1.0000 0.72110  0.24090  0.44560  Biso   1.000  H
  H50      1.0000 0.77890  0.74090  0.05440  Biso   1.000  H
  H51      1.0000 0.27890  0.75910  0.55440  Biso   1.000  H
  H52      1.0000 0.22110  0.25910  0.94560  Biso   1.000  H
  H53      1.0000 0.61370  0.24070  0.49550  Biso   1.000  H
  H54      1.0000 0.88630  0.74070  0.00450  Biso   1.000  H
  H55      1.0000 0.38630  0.75930  0.50450  Biso   1.000  H
  H56      1.0000 0.11370  0.25930  0.99550  Biso   1.000  H
  H57      1.0000 0.92610  0.34030  0.30620  Biso   1.000  H
  H58      1.0000 0.57390  0.84030  0.19380  Biso   1.000  H
  H59      1.0000 0.07390  0.65970  0.69380  Biso   1.000  H
  H60      1.0000 0.42610  0.15970  0.80620  Biso   1.000  H
  H61      1.0000 0.32360  0.83230  0.12110  Biso   1.000  H
  H62      1.0000 0.17640  0.33230  0.37890  Biso   1.000  H
  H63      1.0000 0.67640  0.16770  0.87890  Biso   1.000  H
  H64      1.0000 0.82360  0.66770  0.62110  Biso   1.000  H
  H65      1.0000 0.17690  0.78860  0.08950  Biso   1.000  H
  H66      1.0000 0.32310  0.28860  0.41050  Biso   1.000  H
  H67      1.0000 0.82310  0.21140  0.91050  Biso   1.000  H
  H68      1.0000 0.67690  0.71140  0.58950  Biso   1.000  H
  H69      1.0000 0.43420  0.50690  0.19210  Biso   1.000  H
  H70      1.0000 0.06580  0.00690  0.30790  Biso   1.000  H
  H71      1.0000 0.56580  0.49310  0.80790  Biso   1.000  H
  H72      1.0000 0.93420  0.99310  0.69210  Biso   1.000  H
  H73      1.0000 0.41320  0.49660  0.10750  Biso   1.000  H
  H74      1.0000 0.08680  0.99660  0.39250  Biso   1.000  H
  H75      1.0000 0.58680  0.50340  0.89250  Biso   1.000  H
  H76      1.0000 0.91320  0.00340  0.60750  Biso   1.000  H
  H77      1.0000 0.55770  0.47420  0.15810  Biso   1.000  H
  H78      1.0000 0.94230  0.97420  0.34190  Biso   1.000  H
  H79      1.0000 0.44230  0.52580  0.84190  Biso   1.000  H
  H80      1.0000 0.05770  0.02580  0.65810  Biso   1.000  H
  H81      1.0000 0.69540  0.08830  0.48570  Biso   1.000  H
  H82      1.0000 0.80460  0.58830  0.01430  Biso   1.000  H
  H83      1.0000 0.30460  0.91170  0.51430  Biso   1.000  H
  H84      1.0000 0.19540  0.41170  0.98570  Biso   1.000  H
  H85      1.0000 0.59730  0.28320  0.97200  Biso   1.000  H
  H86      1.0000 0.90270  0.78320  0.52800  Biso   1.000  H
  H87      1.0000 0.40270  0.71680  0.02800  Biso   1.000  H
  H88      1.0000 0.09730  0.21680  0.47200  Biso   1.000  H
  H89      1.0000 0.69060  0.91910  0.48740  Biso   1.000  H
  H90      1.0000 0.80940  0.41910  0.01260  Biso   1.000  H
  H91      1.0000 0.30940  0.08090  0.51260  Biso   1.000  H
  H92      1.0000 0.19060  0.58090  0.98740  Biso   1.000  H
  H93      1.0000 0.03490  0.22740  0.25190  Biso   1.000  H
  H94      1.0000 0.46510  0.72740  0.24810  Biso   1.000  H
  H95      1.0000 0.96510  0.77260  0.74810  Biso   1.000  H
  H96      1.0000 0.53490  0.27260  0.75190  Biso   1.000  H
  H97      1.0000 0.76430  0.00290  0.12150  Biso   1.000  H
  H98      1.0000 0.73570  0.50290  0.37850  Biso   1.000  H
  H99      1.0000 0.23570  0.99710  0.87850  Biso   1.000  H
  H100     1.0000 0.26430  0.49710  0.62150  Biso   1.000  H
