data_image0
_cell_length_a       19.9611
_cell_length_b       19.9611
_cell_length_c       19.9611
_cell_angle_alpha    90
_cell_angle_beta     90
_cell_angle_gamma    90

_symmetry_space_group_name_H-M    "P 1"
_symmetry_int_tables_number       1

loop_
  _symmetry_equiv_pos_as_xyz
  'x, y, z'

loop_
  _atom_site_label
  _atom_site_occupancy
  _atom_site_fract_x
  _atom_site_fract_y
  _atom_site_fract_z
  _atom_site_thermal_displace_type
  _atom_site_B_iso_or_equiv
  _atom_site_type_symbol
  Ga1      1.0000 0.00000  0.25000  0.87500  Biso   1.000  Ga
  Ga2      1.0000 0.50000  0.75000  0.37500  Biso   1.000  Ga
  Ga3      1.0000 0.00000  0.75000  0.62500  Biso   1.000  Ga
  Ga4      1.0000 0.50000  0.25000  0.12500  Biso   1.000  Ga
  Ga5      1.0000 0.87500  0.00000  0.25000  Biso   1.000  Ga
  Ga6      1.0000 0.37500  0.50000  0.75000  Biso   1.000  Ga
  Ga7      1.0000 0.62500  0.00000  0.75000  Biso   1.000  Ga
  Ga8      1.0000 0.12500  0.50000  0.25000  Biso   1.000  Ga
  Ga9      1.0000 0.25000  0.87500  0.00000  Biso   1.000  Ga
  Ga10     1.0000 0.75000  0.37500  0.50000  Biso   1.000  Ga
  Ga11     1.0000 0.75000  0.62500  0.00000  Biso   1.000  Ga
  Ga12     1.0000 0.25000  0.12500  0.50000  Biso   1.000  Ga
  O1       1.0000 0.92576  0.22045  0.82988  Biso   1.000  O
  O2       1.0000 0.57424  0.77955  0.32988  Biso   1.000  O
  O3       1.0000 0.07424  0.72045  0.67012  Biso   1.000  O
  O4       1.0000 0.42576  0.27955  0.17012  Biso   1.000  O
  O5       1.0000 0.82988  0.92576  0.22045  Biso   1.000  O
  O6       1.0000 0.32988  0.57424  0.77955  Biso   1.000  O
  O7       1.0000 0.67012  0.07424  0.72045  Biso   1.000  O
  O8       1.0000 0.17012  0.42576  0.27955  Biso   1.000  O
  O9       1.0000 0.22045  0.82988  0.92576  Biso   1.000  O
  O10      1.0000 0.77955  0.32988  0.57424  Biso   1.000  O
  O11      1.0000 0.72045  0.67012  0.07424  Biso   1.000  O
  O12      1.0000 0.27955  0.17012  0.42576  Biso   1.000  O
  O13      1.0000 0.47045  0.17576  0.07988  Biso   1.000  O
  O14      1.0000 0.02955  0.82424  0.57988  Biso   1.000  O
  O15      1.0000 0.97045  0.32424  0.92012  Biso   1.000  O
  O16      1.0000 0.52955  0.67576  0.42012  Biso   1.000  O
  O17      1.0000 0.17576  0.07988  0.47045  Biso   1.000  O
  O18      1.0000 0.82424  0.57988  0.02955  Biso   1.000  O
  O19      1.0000 0.32424  0.92012  0.97045  Biso   1.000  O
  O20      1.0000 0.67576  0.42012  0.52955  Biso   1.000  O
  O21      1.0000 0.07988  0.47045  0.17576  Biso   1.000  O
  O22      1.0000 0.57988  0.02955  0.82424  Biso   1.000  O
  O23      1.0000 0.92012  0.97045  0.32424  Biso   1.000  O
  O24      1.0000 0.42012  0.52955  0.67576  Biso   1.000  O
  O25      1.0000 0.42576  0.72045  0.32988  Biso   1.000  O
  O26      1.0000 0.07424  0.27955  0.82988  Biso   1.000  O
  O27      1.0000 0.57424  0.22045  0.17012  Biso   1.000  O
  O28      1.0000 0.92576  0.77955  0.67012  Biso   1.000  O
  O29      1.0000 0.32988  0.42576  0.72045  Biso   1.000  O
  O30      1.0000 0.82988  0.07424  0.27955  Biso   1.000  O
  O31      1.0000 0.17012  0.57424  0.22045  Biso   1.000  O
  O32      1.0000 0.67012  0.92576  0.77955  Biso   1.000  O
  O33      1.0000 0.72045  0.32988  0.42576  Biso   1.000  O
  O34      1.0000 0.27955  0.82988  0.07424  Biso   1.000  O
  O35      1.0000 0.22045  0.17012  0.57424  Biso   1.000  O
  O36      1.0000 0.77955  0.67012  0.92576  Biso   1.000  O
  O37      1.0000 0.97045  0.67576  0.57988  Biso   1.000  O
  O38      1.0000 0.52955  0.32424  0.07988  Biso   1.000  O
  O39      1.0000 0.47045  0.82424  0.42012  Biso   1.000  O
  O40      1.0000 0.02955  0.17576  0.92012  Biso   1.000  O
  O41      1.0000 0.67576  0.57988  0.97045  Biso   1.000  O
  O42      1.0000 0.32424  0.07988  0.52955  Biso   1.000  O
  O43      1.0000 0.82424  0.42012  0.47045  Biso   1.000  O
  O44      1.0000 0.17576  0.92012  0.02955  Biso   1.000  O
  O45      1.0000 0.57988  0.97045  0.67576  Biso   1.000  O
  O46      1.0000 0.07988  0.52955  0.32424  Biso   1.000  O
  O47      1.0000 0.42012  0.47045  0.82424  Biso   1.000  O
  O48      1.0000 0.92012  0.02955  0.17576  Biso   1.000  O
  O49      1.0000 0.93472  0.30906  0.76444  Biso   1.000  O
  O50      1.0000 0.56528  0.69094  0.26444  Biso   1.000  O
  O51      1.0000 0.06528  0.80906  0.73556  Biso   1.000  O
  O52      1.0000 0.43472  0.19094  0.23556  Biso   1.000  O
  O53      1.0000 0.76444  0.93472  0.30906  Biso   1.000  O
  O54      1.0000 0.26444  0.56528  0.69094  Biso   1.000  O
  O55      1.0000 0.73556  0.06528  0.80906  Biso   1.000  O
  O56      1.0000 0.23556  0.43472  0.19094  Biso   1.000  O
  O57      1.0000 0.30906  0.76444  0.93472  Biso   1.000  O
  O58      1.0000 0.69094  0.26444  0.56528  Biso   1.000  O
  O59      1.0000 0.80906  0.73556  0.06528  Biso   1.000  O
  O60      1.0000 0.19094  0.23556  0.43472  Biso   1.000  O
  O61      1.0000 0.55906  0.18472  0.01444  Biso   1.000  O
  O62      1.0000 0.94094  0.81528  0.51444  Biso   1.000  O
  O63      1.0000 0.05906  0.31528  0.98556  Biso   1.000  O
  O64      1.0000 0.44094  0.68472  0.48556  Biso   1.000  O
  O65      1.0000 0.18472  0.01444  0.55906  Biso   1.000  O
  O66      1.0000 0.81528  0.51444  0.94094  Biso   1.000  O
  O67      1.0000 0.31528  0.98556  0.05906  Biso   1.000  O
  O68      1.0000 0.68472  0.48556  0.44094  Biso   1.000  O
  O69      1.0000 0.01444  0.55906  0.18472  Biso   1.000  O
  O70      1.0000 0.51444  0.94094  0.81528  Biso   1.000  O
  O71      1.0000 0.98556  0.05906  0.31528  Biso   1.000  O
  O72      1.0000 0.48556  0.44094  0.68472  Biso   1.000  O
  O73      1.0000 0.43472  0.80906  0.26444  Biso   1.000  O
  O74      1.0000 0.06528  0.19094  0.76444  Biso   1.000  O
  O75      1.0000 0.56528  0.30906  0.23556  Biso   1.000  O
  O76      1.0000 0.93472  0.69094  0.73556  Biso   1.000  O
  O77      1.0000 0.26444  0.43472  0.80906  Biso   1.000  O
  O78      1.0000 0.76444  0.06528  0.19094  Biso   1.000  O
  O79      1.0000 0.23556  0.56528  0.30906  Biso   1.000  O
  O80      1.0000 0.73556  0.93472  0.69094  Biso   1.000  O
  O81      1.0000 0.80906  0.26444  0.43472  Biso   1.000  O
  O82      1.0000 0.19094  0.76444  0.06528  Biso   1.000  O
  O83      1.0000 0.30906  0.23556  0.56528  Biso   1.000  O
  O84      1.0000 0.69094  0.73556  0.93472  Biso   1.000  O
  O85      1.0000 0.05906  0.68472  0.51444  Biso   1.000  O
  O86      1.0000 0.44094  0.31528  0.01444  Biso   1.000  O
  O87      1.0000 0.55906  0.81528  0.48556  Biso   1.000  O
  O88      1.0000 0.94094  0.18472  0.98556  Biso   1.000  O
  O89      1.0000 0.68472  0.51444  0.05906  Biso   1.000  O
  O90      1.0000 0.31528  0.01444  0.44094  Biso   1.000  O
  O91      1.0000 0.81528  0.48556  0.55906  Biso   1.000  O
  O92      1.0000 0.18472  0.98556  0.94094  Biso   1.000  O
  O93      1.0000 0.51444  0.05906  0.68472  Biso   1.000  O
  O94      1.0000 0.01444  0.44094  0.31528  Biso   1.000  O
  O95      1.0000 0.48556  0.55906  0.81528  Biso   1.000  O
  O96      1.0000 0.98556  0.94094  0.18472  Biso   1.000  O
  C1       1.0000 0.90661  0.25805  0.77962  Biso   1.000  C
  C2       1.0000 0.59339  0.74195  0.27962  Biso   1.000  C
  C3       1.0000 0.09339  0.75805  0.72038  Biso   1.000  C
  C4       1.0000 0.40661  0.24195  0.22038  Biso   1.000  C
  C5       1.0000 0.77962  0.90661  0.25805  Biso   1.000  C
  C6       1.0000 0.27962  0.59339  0.74195  Biso   1.000  C
  C7       1.0000 0.72038  0.09339  0.75805  Biso   1.000  C
  C8       1.0000 0.22038  0.40661  0.24195  Biso   1.000  C
  C9       1.0000 0.25805  0.77962  0.90661  Biso   1.000  C
  C10      1.0000 0.74195  0.27962  0.59339  Biso   1.000  C
  C11      1.0000 0.75805  0.72038  0.09339  Biso   1.000  C
  C12      1.0000 0.24195  0.22038  0.40661  Biso   1.000  C
  C13      1.0000 0.50805  0.15661  0.02962  Biso   1.000  C
  C14      1.0000 0.99195  0.84339  0.52962  Biso   1.000  C
  C15      1.0000 0.00805  0.34339  0.97038  Biso   1.000  C
  C16      1.0000 0.49195  0.65661  0.47038  Biso   1.000  C
  C17      1.0000 0.15661  0.02962  0.50805  Biso   1.000  C
  C18      1.0000 0.84339  0.52962  0.99195  Biso   1.000  C
  C19      1.0000 0.34339  0.97038  0.00805  Biso   1.000  C
  C20      1.0000 0.65661  0.47038  0.49195  Biso   1.000  C
  C21      1.0000 0.02962  0.50805  0.15661  Biso   1.000  C
  C22      1.0000 0.52962  0.99195  0.84339  Biso   1.000  C
  C23      1.0000 0.97038  0.00805  0.34339  Biso   1.000  C
  C24      1.0000 0.47038  0.49195  0.65661  Biso   1.000  C
  C25      1.0000 0.40661  0.75805  0.27962  Biso   1.000  C
  C26      1.0000 0.09339  0.24195  0.77962  Biso   1.000  C
  C27      1.0000 0.59339  0.25805  0.22038  Biso   1.000  C
  C28      1.0000 0.90661  0.74195  0.72038  Biso   1.000  C
  C29      1.0000 0.27962  0.40661  0.75805  Biso   1.000  C
  C30      1.0000 0.77962  0.09339  0.24195  Biso   1.000  C
  C31      1.0000 0.22038  0.59339  0.25805  Biso   1.000  C
  C32      1.0000 0.72038  0.90661  0.74195  Biso   1.000  C
  C33      1.0000 0.75805  0.27962  0.40661  Biso   1.000  C
  C34      1.0000 0.24195  0.77962  0.09339  Biso   1.000  C
  C35      1.0000 0.25805  0.22038  0.59339  Biso   1.000  C
  C36      1.0000 0.74195  0.72038  0.90661  Biso   1.000  C
  C37      1.0000 0.00805  0.65661  0.52962  Biso   1.000  C
  C38      1.0000 0.49195  0.34339  0.02962  Biso   1.000  C
  C39      1.0000 0.50805  0.84339  0.47038  Biso   1.000  C
  C40      1.0000 0.99195  0.15661  0.97038  Biso   1.000  C
  C41      1.0000 0.65661  0.52962  0.00805  Biso   1.000  C
  C42      1.0000 0.34339  0.02962  0.49195  Biso   1.000  C
  C43      1.0000 0.84339  0.47038  0.50805  Biso   1.000  C
  C44      1.0000 0.15661  0.97038  0.99195  Biso   1.000  C
  C45      1.0000 0.52962  0.00805  0.65661  Biso   1.000  C
  C46      1.0000 0.02962  0.49195  0.34339  Biso   1.000  C
  C47      1.0000 0.47038  0.50805  0.84339  Biso   1.000  C
  C48      1.0000 0.97038  0.99195  0.15661  Biso   1.000  C
  C49      1.0000 0.84615  0.23246  0.74350  Biso   1.000  C
  C50      1.0000 0.65385  0.76754  0.24350  Biso   1.000  C
  C51      1.0000 0.15385  0.73246  0.75650  Biso   1.000  C
  C52      1.0000 0.34615  0.26754  0.25650  Biso   1.000  C
  C53      1.0000 0.74350  0.84615  0.23246  Biso   1.000  C
  C54      1.0000 0.24350  0.65385  0.76754  Biso   1.000  C
  C55      1.0000 0.75650  0.15385  0.73246  Biso   1.000  C
  C56      1.0000 0.25650  0.34615  0.26754  Biso   1.000  C
  C57      1.0000 0.23246  0.74350  0.84615  Biso   1.000  C
  C58      1.0000 0.76754  0.24350  0.65385  Biso   1.000  C
  C59      1.0000 0.73246  0.75650  0.15385  Biso   1.000  C
  C60      1.0000 0.26754  0.25650  0.34615  Biso   1.000  C
  C61      1.0000 0.48246  0.09615  0.99350  Biso   1.000  C
  C62      1.0000 0.01754  0.90385  0.49350  Biso   1.000  C
  C63      1.0000 0.98246  0.40385  0.00650  Biso   1.000  C
  C64      1.0000 0.51754  0.59615  0.50650  Biso   1.000  C
  C65      1.0000 0.09615  0.99350  0.48246  Biso   1.000  C
  C66      1.0000 0.90385  0.49350  0.01754  Biso   1.000  C
  C67      1.0000 0.40385  0.00650  0.98246  Biso   1.000  C
  C68      1.0000 0.59615  0.50650  0.51754  Biso   1.000  C
  C69      1.0000 0.99350  0.48246  0.09615  Biso   1.000  C
  C70      1.0000 0.49350  0.01754  0.90385  Biso   1.000  C
  C71      1.0000 0.00650  0.98246  0.40385  Biso   1.000  C
  C72      1.0000 0.50650  0.51754  0.59615  Biso   1.000  C
  C73      1.0000 0.34615  0.73246  0.24350  Biso   1.000  C
  C74      1.0000 0.15385  0.26754  0.74350  Biso   1.000  C
  C75      1.0000 0.65385  0.23246  0.25650  Biso   1.000  C
  C76      1.0000 0.84615  0.76754  0.75650  Biso   1.000  C
  C77      1.0000 0.24350  0.34615  0.73246  Biso   1.000  C
  C78      1.0000 0.74350  0.15385  0.26754  Biso   1.000  C
  C79      1.0000 0.25650  0.65385  0.23246  Biso   1.000  C
  C80      1.0000 0.75650  0.84615  0.76754  Biso   1.000  C
  C81      1.0000 0.73246  0.24350  0.34615  Biso   1.000  C
  C82      1.0000 0.26754  0.74350  0.15385  Biso   1.000  C
  C83      1.0000 0.23246  0.25650  0.65385  Biso   1.000  C
  C84      1.0000 0.76754  0.75650  0.84615  Biso   1.000  C
  C85      1.0000 0.98246  0.59615  0.49350  Biso   1.000  C
  C86      1.0000 0.51754  0.40385  0.99350  Biso   1.000  C
  C87      1.0000 0.48246  0.90385  0.50650  Biso   1.000  C
  C88      1.0000 0.01754  0.09615  0.00650  Biso   1.000  C
  C89      1.0000 0.59615  0.49350  0.98246  Biso   1.000  C
  C90      1.0000 0.40385  0.99350  0.51754  Biso   1.000  C
  C91      1.0000 0.90385  0.50650  0.48246  Biso   1.000  C
  C92      1.0000 0.09615  0.00650  0.01754  Biso   1.000  C
  C93      1.0000 0.49350  0.98246  0.59615  Biso   1.000  C
  C94      1.0000 0.99350  0.51754  0.40385  Biso   1.000  C
  C95      1.0000 0.50650  0.48246  0.90385  Biso   1.000  C
  C96      1.0000 0.00650  0.01754  0.09615  Biso   1.000  C
  C97      1.0000 0.82407  0.26677  0.68839  Biso   1.000  C
  C98      1.0000 0.67593  0.73323  0.18839  Biso   1.000  C
  C99      1.0000 0.17593  0.76677  0.81161  Biso   1.000  C
  C100     1.0000 0.32407  0.23323  0.31161  Biso   1.000  C
  C101     1.0000 0.68839  0.82407  0.26677  Biso   1.000  C
  C102     1.0000 0.18839  0.67593  0.73323  Biso   1.000  C
  C103     1.0000 0.81161  0.17593  0.76677  Biso   1.000  C
  C104     1.0000 0.31161  0.32407  0.23323  Biso   1.000  C
  C105     1.0000 0.26677  0.68839  0.82407  Biso   1.000  C
  C106     1.0000 0.73323  0.18839  0.67593  Biso   1.000  C
  C107     1.0000 0.76677  0.81161  0.17593  Biso   1.000  C
  C108     1.0000 0.23323  0.31161  0.32407  Biso   1.000  C
  C109     1.0000 0.51677  0.07407  0.93839  Biso   1.000  C
  C110     1.0000 0.98323  0.92593  0.43839  Biso   1.000  C
  C111     1.0000 0.01677  0.42593  0.06161  Biso   1.000  C
  C112     1.0000 0.48323  0.57407  0.56161  Biso   1.000  C
  C113     1.0000 0.07407  0.93839  0.51677  Biso   1.000  C
  C114     1.0000 0.92593  0.43839  0.98323  Biso   1.000  C
  C115     1.0000 0.42593  0.06161  0.01677  Biso   1.000  C
  C116     1.0000 0.57407  0.56161  0.48323  Biso   1.000  C
  C117     1.0000 0.93839  0.51677  0.07407  Biso   1.000  C
  C118     1.0000 0.43839  0.98323  0.92593  Biso   1.000  C
  C119     1.0000 0.06161  0.01677  0.42593  Biso   1.000  C
  C120     1.0000 0.56161  0.48323  0.57407  Biso   1.000  C
  C121     1.0000 0.32407  0.76677  0.18839  Biso   1.000  C
  C122     1.0000 0.17593  0.23323  0.68839  Biso   1.000  C
  C123     1.0000 0.67593  0.26677  0.31161  Biso   1.000  C
  C124     1.0000 0.82407  0.73323  0.81161  Biso   1.000  C
  C125     1.0000 0.18839  0.32407  0.76677  Biso   1.000  C
  C126     1.0000 0.68839  0.17593  0.23323  Biso   1.000  C
  C127     1.0000 0.31161  0.67593  0.26677  Biso   1.000  C
  C128     1.0000 0.81161  0.82407  0.73323  Biso   1.000  C
  C129     1.0000 0.76677  0.18839  0.32407  Biso   1.000  C
  C130     1.0000 0.23323  0.68839  0.17593  Biso   1.000  C
  C131     1.0000 0.26677  0.31161  0.67593  Biso   1.000  C
  C132     1.0000 0.73323  0.81161  0.82407  Biso   1.000  C
  C133     1.0000 0.01677  0.57407  0.43839  Biso   1.000  C
  C134     1.0000 0.48323  0.42593  0.93839  Biso   1.000  C
  C135     1.0000 0.51677  0.92593  0.56161  Biso   1.000  C
  C136     1.0000 0.98323  0.07407  0.06161  Biso   1.000  C
  C137     1.0000 0.57407  0.43839  0.01677  Biso   1.000  C
  C138     1.0000 0.42593  0.93839  0.48323  Biso   1.000  C
  C139     1.0000 0.92593  0.56161  0.51677  Biso   1.000  C
  C140     1.0000 0.07407  0.06161  0.98323  Biso   1.000  C
  C141     1.0000 0.43839  0.01677  0.57407  Biso   1.000  C
  C142     1.0000 0.93839  0.48323  0.42593  Biso   1.000  C
  C143     1.0000 0.56161  0.51677  0.92593  Biso   1.000  C
  C144     1.0000 0.06161  0.98323  0.07407  Biso   1.000  C
  H1       1.0000 0.84680  0.30590  0.67370  Biso   1.000  H
  H2       1.0000 0.65320  0.69410  0.17370  Biso   1.000  H
  H3       1.0000 0.15320  0.80590  0.82630  Biso   1.000  H
  H4       1.0000 0.34680  0.19410  0.32630  Biso   1.000  H
  H5       1.0000 0.67370  0.84680  0.30590  Biso   1.000  H
  H6       1.0000 0.17370  0.65320  0.69410  Biso   1.000  H
  H7       1.0000 0.82630  0.15320  0.80590  Biso   1.000  H
  H8       1.0000 0.32630  0.34680  0.19410  Biso   1.000  H
  H9       1.0000 0.30590  0.67370  0.84680  Biso   1.000  H
  H10      1.0000 0.69410  0.17370  0.65320  Biso   1.000  H
  H11      1.0000 0.80590  0.82630  0.15320  Biso   1.000  H
  H12      1.0000 0.19410  0.32630  0.34680  Biso   1.000  H
  H13      1.0000 0.55590  0.09680  0.92370  Biso   1.000  H
  H14      1.0000 0.94410  0.90320  0.42370  Biso   1.000  H
  H15      1.0000 0.05590  0.40320  0.07630  Biso   1.000  H
  H16      1.0000 0.44410  0.59680  0.57630  Biso   1.000  H
  H17      1.0000 0.09680  0.92370  0.55590  Biso   1.000  H
  H18      1.0000 0.90320  0.42370  0.94410  Biso   1.000  H
  H19      1.0000 0.40320  0.07630  0.05590  Biso   1.000  H
  H20      1.0000 0.59680  0.57630  0.44410  Biso   1.000  H
  H21      1.0000 0.92370  0.55590  0.09680  Biso   1.000  H
  H22      1.0000 0.42370  0.94410  0.90320  Biso   1.000  H
  H23      1.0000 0.07630  0.05590  0.40320  Biso   1.000  H
  H24      1.0000 0.57630  0.44410  0.59680  Biso   1.000  H
  H25      1.0000 0.34680  0.80590  0.17370  Biso   1.000  H
  H26      1.0000 0.15320  0.19410  0.67370  Biso   1.000  H
  H27      1.0000 0.65320  0.30590  0.32630  Biso   1.000  H
  H28      1.0000 0.84680  0.69410  0.82630  Biso   1.000  H
  H29      1.0000 0.17370  0.34680  0.80590  Biso   1.000  H
  H30      1.0000 0.67370  0.15320  0.19410  Biso   1.000  H
  H31      1.0000 0.32630  0.65320  0.30590  Biso   1.000  H
  H32      1.0000 0.82630  0.84680  0.69410  Biso   1.000  H
  H33      1.0000 0.80590  0.17370  0.34680  Biso   1.000  H
  H34      1.0000 0.19410  0.67370  0.15320  Biso   1.000  H
  H35      1.0000 0.30590  0.32630  0.65320  Biso   1.000  H
  H36      1.0000 0.69410  0.82630  0.84680  Biso   1.000  H
  H37      1.0000 0.05590  0.59680  0.42370  Biso   1.000  H
  H38      1.0000 0.44410  0.40320  0.92370  Biso   1.000  H
  H39      1.0000 0.55590  0.90320  0.57630  Biso   1.000  H
  H40      1.0000 0.94410  0.09680  0.07630  Biso   1.000  H
  H41      1.0000 0.59680  0.42370  0.05590  Biso   1.000  H
  H42      1.0000 0.40320  0.92370  0.44410  Biso   1.000  H
  H43      1.0000 0.90320  0.57630  0.55590  Biso   1.000  H
  H44      1.0000 0.09680  0.07630  0.94410  Biso   1.000  H
  H45      1.0000 0.42370  0.05590  0.59680  Biso   1.000  H
  H46      1.0000 0.92370  0.44410  0.40320  Biso   1.000  H
  H47      1.0000 0.57630  0.55590  0.90320  Biso   1.000  H
  H48      1.0000 0.07630  0.94410  0.09680  Biso   1.000  H
