data_image0
_cell_length_a       14.361
_cell_length_b       15.908
_cell_length_c       29.0956
_cell_angle_alpha    90
_cell_angle_beta     90
_cell_angle_gamma    90

_symmetry_space_group_name_H-M    "P 1"
_symmetry_int_tables_number       1

loop_
  _symmetry_equiv_pos_as_xyz
  'x, y, z'

loop_
  _atom_site_label
  _atom_site_occupancy
  _atom_site_fract_x
  _atom_site_fract_y
  _atom_site_fract_z
  _atom_site_thermal_displace_type
  _atom_site_B_iso_or_equiv
  _atom_site_type_symbol
  U1       1.0000 0.57507  0.79654  0.91625  Biso   1.000  U
  U2       1.0000 0.07507  0.20346  0.08375  Biso   1.000  U
  U3       1.0000 0.57507  0.70346  0.41625  Biso   1.000  U
  U4       1.0000 0.07507  0.29654  0.58375  Biso   1.000  U
  S1       1.0000 0.49210  0.68744  0.85281  Biso   1.000  S
  S2       1.0000 0.99210  0.31256  0.14719  Biso   1.000  S
  S3       1.0000 0.49210  0.81256  0.35281  Biso   1.000  S
  S4       1.0000 0.99210  0.18744  0.64719  Biso   1.000  S
  S5       1.0000 0.42970  0.88012  0.87118  Biso   1.000  S
  S6       1.0000 0.92970  0.11988  0.12882  Biso   1.000  S
  S7       1.0000 0.42970  0.61988  0.37118  Biso   1.000  S
  S8       1.0000 0.92970  0.38012  0.62882  Biso   1.000  S
  S9       1.0000 0.26189  0.86005  0.81568  Biso   1.000  S
  S10      1.0000 0.76189  0.13995  0.18432  Biso   1.000  S
  S11      1.0000 0.26189  0.63995  0.31568  Biso   1.000  S
  S12      1.0000 0.76189  0.36005  0.68432  Biso   1.000  S
  S13      1.0000 0.32380  0.64911  0.80275  Biso   1.000  S
  S14      1.0000 0.82380  0.35089  0.19725  Biso   1.000  S
  S15      1.0000 0.32380  0.85089  0.30275  Biso   1.000  S
  S16      1.0000 0.82380  0.14911  0.69725  Biso   1.000  S
  C1       1.0000 0.38550  0.72820  0.83390  Biso   1.000  C
  C2       1.0000 0.88550  0.27180  0.16610  Biso   1.000  C
  C3       1.0000 0.38550  0.77180  0.33390  Biso   1.000  C
  C4       1.0000 0.88550  0.22820  0.66610  Biso   1.000  C
  C5       1.0000 0.35950  0.80940  0.83990  Biso   1.000  C
  C6       1.0000 0.85950  0.19060  0.16010  Biso   1.000  C
  C7       1.0000 0.35950  0.69060  0.33990  Biso   1.000  C
  C8       1.0000 0.85950  0.30940  0.66010  Biso   1.000  C
  C9       1.0000 0.21810  0.78540  0.77440  Biso   1.000  C
  C10      1.0000 0.71810  0.21460  0.22560  Biso   1.000  C
  C11      1.0000 0.21810  0.71460  0.27440  Biso   1.000  C
  C12      1.0000 0.71810  0.28540  0.72560  Biso   1.000  C
  H1       1.0000 0.15700  0.80310  0.76400  Biso   1.000  H
  H2       1.0000 0.65700  0.19690  0.23600  Biso   1.000  H
  H3       1.0000 0.15700  0.69690  0.26400  Biso   1.000  H
  H4       1.0000 0.65700  0.30310  0.73600  Biso   1.000  H
  H5       1.0000 0.25920  0.78410  0.74790  Biso   1.000  H
  H6       1.0000 0.75920  0.21590  0.25210  Biso   1.000  H
  H7       1.0000 0.25920  0.71590  0.24790  Biso   1.000  H
  H8       1.0000 0.75920  0.28410  0.75210  Biso   1.000  H
  C13      1.0000 0.21140  0.69710  0.79510  Biso   1.000  C
  C14      1.0000 0.71140  0.30290  0.20490  Biso   1.000  C
  C15      1.0000 0.21140  0.80290  0.29510  Biso   1.000  C
  C16      1.0000 0.71140  0.19710  0.70490  Biso   1.000  C
  H9       1.0000 0.17380  0.66200  0.77520  Biso   1.000  H
  H10      1.0000 0.67380  0.33800  0.22480  Biso   1.000  H
  H11      1.0000 0.17380  0.83800  0.27520  Biso   1.000  H
  H12      1.0000 0.67380  0.16200  0.72480  Biso   1.000  H
  H13      1.0000 0.18030  0.70060  0.82470  Biso   1.000  H
  H14      1.0000 0.68030  0.29940  0.17530  Biso   1.000  H
  H15      1.0000 0.18030  0.79940  0.32470  Biso   1.000  H
  H16      1.0000 0.68030  0.20060  0.67530  Biso   1.000  H
  S17      1.0000 0.68837  0.66228  0.88406  Biso   1.000  S
  S18      1.0000 0.18837  0.33772  0.11594  Biso   1.000  S
  S19      1.0000 0.68837  0.83772  0.38406  Biso   1.000  S
  S20      1.0000 0.18837  0.16228  0.61594  Biso   1.000  S
  S21      1.0000 0.71298  0.75353  0.98289  Biso   1.000  S
  S22      1.0000 0.21298  0.24647  0.01711  Biso   1.000  S
  S23      1.0000 0.71298  0.74647  0.48289  Biso   1.000  S
  S24      1.0000 0.21298  0.25353  0.51711  Biso   1.000  S
  S25      1.0000 0.88998  0.66879  0.99940  Biso   1.000  S
  S26      1.0000 0.38998  0.33121  0.00060  Biso   1.000  S
  S27      1.0000 0.88998  0.83121  0.49940  Biso   1.000  S
  S28      1.0000 0.38998  0.16879  0.50060  Biso   1.000  S
  S29      1.0000 0.87057  0.58362  0.88970  Biso   1.000  S
  S30      1.0000 0.37057  0.41638  0.11030  Biso   1.000  S
  S31      1.0000 0.87057  0.91638  0.38970  Biso   1.000  S
  S32      1.0000 0.37057  0.08362  0.61030  Biso   1.000  S
  C17      1.0000 0.79060  0.65060  0.91770  Biso   1.000  C
  C18      1.0000 0.29060  0.34940  0.08230  Biso   1.000  C
  C19      1.0000 0.79060  0.84940  0.41770  Biso   1.000  C
  C20      1.0000 0.29060  0.15060  0.58230  Biso   1.000  C
  C21      1.0000 0.79840  0.68610  0.95950  Biso   1.000  C
  C22      1.0000 0.29840  0.31390  0.04050  Biso   1.000  C
  C23      1.0000 0.79840  0.81390  0.45950  Biso   1.000  C
  C24      1.0000 0.29840  0.18610  0.54050  Biso   1.000  C
  C25      1.0000 0.95920  0.58770  0.97340  Biso   1.000  C
  C26      1.0000 0.45920  0.41230  0.02660  Biso   1.000  C
  C27      1.0000 0.95920  0.91230  0.47340  Biso   1.000  C
  C28      1.0000 0.45920  0.08770  0.52660  Biso   1.000  C
  H17      1.0000 0.01900  0.58570  0.98890  Biso   1.000  H
  H18      1.0000 0.51900  0.41430  0.01110  Biso   1.000  H
  H19      1.0000 0.01900  0.91430  0.48890  Biso   1.000  H
  H20      1.0000 0.51900  0.08570  0.51110  Biso   1.000  H
  H21      1.0000 0.92870  0.53410  0.97840  Biso   1.000  H
  H22      1.0000 0.42870  0.46590  0.02160  Biso   1.000  H
  H23      1.0000 0.92870  0.96590  0.47840  Biso   1.000  H
  H24      1.0000 0.42870  0.03410  0.52160  Biso   1.000  H
  C29      1.0000 0.97570  0.59830  0.92330  Biso   1.000  C
  C30      1.0000 0.47570  0.40170  0.07670  Biso   1.000  C
  C31      1.0000 0.97570  0.90170  0.42330  Biso   1.000  C
  C32      1.0000 0.47570  0.09830  0.57670  Biso   1.000  C
  H25      1.0000 0.02220  0.55810  0.91330  Biso   1.000  H
  H26      1.0000 0.52220  0.44190  0.08670  Biso   1.000  H
  H27      1.0000 0.02220  0.94190  0.41330  Biso   1.000  H
  H28      1.0000 0.52220  0.05810  0.58670  Biso   1.000  H
  H29      1.0000 0.00000  0.65430  0.91770  Biso   1.000  H
  H30      1.0000 0.50000  0.34570  0.08230  Biso   1.000  H
  H31      1.0000 0.00000  0.84570  0.41770  Biso   1.000  H
  H32      1.0000 0.50000  0.15430  0.58230  Biso   1.000  H
  S33      1.0000 0.59317  0.97447  0.92726  Biso   1.000  S
  S34      1.0000 0.09317  0.02553  0.07274  Biso   1.000  S
  S35      1.0000 0.59317  0.52553  0.42726  Biso   1.000  S
  S36      1.0000 0.09317  0.47447  0.57274  Biso   1.000  S
  S37      1.0000 0.70464  0.85921  0.85355  Biso   1.000  S
  S38      1.0000 0.20464  0.14079  0.14645  Biso   1.000  S
  S39      1.0000 0.70464  0.64079  0.35355  Biso   1.000  S
  S40      1.0000 0.20464  0.35921  0.64645  Biso   1.000  S
  S41      1.0000 0.74372  0.01113  0.79718  Biso   1.000  S
  S42      1.0000 0.24372  0.98887  0.20282  Biso   1.000  S
  S43      1.0000 0.74372  0.48887  0.29718  Biso   1.000  S
  S44      1.0000 0.24372  0.51113  0.70282  Biso   1.000  S
  S45      1.0000 0.61503  0.12378  0.87069  Biso   1.000  S
  S46      1.0000 0.11503  0.87622  0.12931  Biso   1.000  S
  S47      1.0000 0.61503  0.37622  0.37069  Biso   1.000  S
  S48      1.0000 0.11503  0.62378  0.62931  Biso   1.000  S
  C33      1.0000 0.63870  0.01590  0.87570  Biso   1.000  C
  C34      1.0000 0.13870  0.98410  0.12430  Biso   1.000  C
  C35      1.0000 0.63870  0.48410  0.37570  Biso   1.000  C
  C36      1.0000 0.13870  0.51590  0.62430  Biso   1.000  C
  C37      1.0000 0.68630  0.96780  0.84570  Biso   1.000  C
  C38      1.0000 0.18630  0.03220  0.15430  Biso   1.000  C
  C39      1.0000 0.68630  0.53220  0.34570  Biso   1.000  C
  C40      1.0000 0.18630  0.46780  0.65430  Biso   1.000  C
  C41      1.0000 0.78030  0.11050  0.82070  Biso   1.000  C
  C42      1.0000 0.28030  0.88950  0.17930  Biso   1.000  C
  C43      1.0000 0.78030  0.38950  0.32070  Biso   1.000  C
  C44      1.0000 0.28030  0.61050  0.67930  Biso   1.000  C
  H33      1.0000 0.81660  0.10070  0.84830  Biso   1.000  H
  H34      1.0000 0.31660  0.89930  0.15170  Biso   1.000  H
  H35      1.0000 0.81660  0.39930  0.34830  Biso   1.000  H
  H36      1.0000 0.31660  0.60070  0.65170  Biso   1.000  H
  H37      1.0000 0.81990  0.13900  0.79860  Biso   1.000  H
  H38      1.0000 0.31990  0.86100  0.20140  Biso   1.000  H
  H39      1.0000 0.81990  0.36100  0.29860  Biso   1.000  H
  H40      1.0000 0.31990  0.63900  0.70140  Biso   1.000  H
  C45      1.0000 0.69770  0.16620  0.83220  Biso   1.000  C
  C46      1.0000 0.19770  0.83380  0.16780  Biso   1.000  C
  C47      1.0000 0.69770  0.33380  0.33220  Biso   1.000  C
  C48      1.0000 0.19770  0.66620  0.66780  Biso   1.000  C
  H41      1.0000 0.66600  0.18010  0.80380  Biso   1.000  H
  H42      1.0000 0.16600  0.81990  0.19620  Biso   1.000  H
  H43      1.0000 0.66600  0.31990  0.30380  Biso   1.000  H
  H44      1.0000 0.16600  0.68010  0.69620  Biso   1.000  H
  H45      1.0000 0.72110  0.21830  0.84510  Biso   1.000  H
  H46      1.0000 0.22110  0.78170  0.15490  Biso   1.000  H
  H47      1.0000 0.72110  0.28170  0.34510  Biso   1.000  H
  H48      1.0000 0.22110  0.71830  0.65490  Biso   1.000  H
  S49      1.0000 0.53065  0.86692  0.00421  Biso   1.000  S
  S50      1.0000 0.03065  0.13308  0.99579  Biso   1.000  S
  S51      1.0000 0.53065  0.63308  0.50421  Biso   1.000  S
  S52      1.0000 0.03065  0.36692  0.49579  Biso   1.000  S
  S53      1.0000 0.45663  0.68671  0.96530  Biso   1.000  S
  S54      1.0000 0.95663  0.31329  0.03470  Biso   1.000  S
  S55      1.0000 0.45663  0.81329  0.46530  Biso   1.000  S
  S56      1.0000 0.95663  0.18671  0.53470  Biso   1.000  S
  S57      1.0000 0.41291  0.62902  0.05776  Biso   1.000  S
  S58      1.0000 0.91291  0.37098  0.94224  Biso   1.000  S
  S59      1.0000 0.41291  0.87098  0.55776  Biso   1.000  S
  S60      1.0000 0.91291  0.12902  0.44224  Biso   1.000  S
  S61      1.0000 0.49788  0.81849  0.09891  Biso   1.000  S
  S62      1.0000 0.99788  0.18151  0.90109  Biso   1.000  S
  S63      1.0000 0.49788  0.68151  0.59891  Biso   1.000  S
  S64      1.0000 0.99788  0.31849  0.40109  Biso   1.000  S
  C49      1.0000 0.49330  0.78590  0.04070  Biso   1.000  C
  C50      1.0000 0.99330  0.21410  0.95930  Biso   1.000  C
  C51      1.0000 0.49330  0.71410  0.54070  Biso   1.000  C
  C52      1.0000 0.99330  0.28590  0.45930  Biso   1.000  C
  C53      1.0000 0.45970  0.71260  0.02470  Biso   1.000  C
  C54      1.0000 0.95970  0.28740  0.97530  Biso   1.000  C
  C55      1.0000 0.45970  0.78740  0.52470  Biso   1.000  C
  C56      1.0000 0.95970  0.21260  0.47530  Biso   1.000  C
  C57      1.0000 0.38600  0.67890  0.11230  Biso   1.000  C
  C58      1.0000 0.88600  0.32110  0.88770  Biso   1.000  C
  C59      1.0000 0.38600  0.82110  0.61230  Biso   1.000  C
  C60      1.0000 0.88600  0.17890  0.38770  Biso   1.000  C
  H49      1.0000 0.33370  0.71680  0.10820  Biso   1.000  H
  H50      1.0000 0.83370  0.28320  0.89180  Biso   1.000  H
  H51      1.0000 0.33370  0.78320  0.60820  Biso   1.000  H
  H52      1.0000 0.83370  0.21680  0.39180  Biso   1.000  H
  H53      1.0000 0.36770  0.63620  0.13430  Biso   1.000  H
  H54      1.0000 0.86770  0.36380  0.86570  Biso   1.000  H
  H55      1.0000 0.36770  0.86380  0.63430  Biso   1.000  H
  H56      1.0000 0.86770  0.13620  0.36570  Biso   1.000  H
  C61      1.0000 0.46870  0.72810  0.13140  Biso   1.000  C
  C62      1.0000 0.96870  0.27190  0.86860  Biso   1.000  C
  C63      1.0000 0.46870  0.77190  0.63140  Biso   1.000  C
  C64      1.0000 0.96870  0.22810  0.36860  Biso   1.000  C
  H57      1.0000 0.52250  0.69120  0.13250  Biso   1.000  H
  H58      1.0000 0.02250  0.30880  0.86750  Biso   1.000  H
  H59      1.0000 0.52250  0.80880  0.63250  Biso   1.000  H
  H60      1.0000 0.02250  0.19120  0.36750  Biso   1.000  H
  H61      1.0000 0.45460  0.74520  0.16260  Biso   1.000  H
  H62      1.0000 0.95460  0.25480  0.83740  Biso   1.000  H
  H63      1.0000 0.45460  0.75480  0.66260  Biso   1.000  H
  H64      1.0000 0.95460  0.24520  0.33740  Biso   1.000  H
  Na1      1.0000 0.65570  0.72884  0.78813  Biso   1.000  Na
  Na2      1.0000 0.15570  0.27116  0.21187  Biso   1.000  Na
  Na3      1.0000 0.65570  0.77116  0.28813  Biso   1.000  Na
  Na4      1.0000 0.15570  0.22884  0.71187  Biso   1.000  Na
  Na5      1.0000 0.39510  0.96769  0.95468  Biso   1.000  Na
  Na6      1.0000 0.89510  0.03231  0.04532  Biso   1.000  Na
  Na7      1.0000 0.39510  0.53231  0.45468  Biso   1.000  Na
  Na8      1.0000 0.89510  0.46769  0.54532  Biso   1.000  Na
  Na9      1.0000 0.72130  0.93116  0.00486  Biso   1.000  Na
  Na10     1.0000 0.22130  0.06884  0.99514  Biso   1.000  Na
  Na11     1.0000 0.72130  0.56884  0.50486  Biso   1.000  Na
  Na12     1.0000 0.22130  0.43116  0.49514  Biso   1.000  Na
  Na13     1.0000 0.62250  0.59346  0.97340  Biso   1.000  Na
  Na14     1.0000 0.12250  0.40654  0.02660  Biso   1.000  Na
  Na15     1.0000 0.62250  0.90654  0.47340  Biso   1.000  Na
  Na16     1.0000 0.12250  0.09346  0.52660  Biso   1.000  Na
  O1       1.0000 0.58180  0.81410  0.73359  Biso   1.000  O
  O2       1.0000 0.08180  0.18590  0.26641  Biso   1.000  O
  O3       1.0000 0.58180  0.68590  0.23359  Biso   1.000  O
  O4       1.0000 0.08180  0.31410  0.76641  Biso   1.000  O
  O5       1.0000 0.80680  0.72730  0.75631  Biso   1.000  O
  O6       1.0000 0.30680  0.27270  0.24369  Biso   1.000  O
  O7       1.0000 0.80680  0.77270  0.25631  Biso   1.000  O
  O8       1.0000 0.30680  0.22730  0.74369  Biso   1.000  O
  O9       1.0000 0.62890  0.60040  0.75101  Biso   1.000  O
  O10      1.0000 0.12890  0.39960  0.24899  Biso   1.000  O
  O11      1.0000 0.62890  0.89960  0.25101  Biso   1.000  O
  O12      1.0000 0.12890  0.10040  0.74899  Biso   1.000  O
  O13      1.0000 0.24420  0.91730  0.97734  Biso   1.000  O
  O14      1.0000 0.74420  0.08270  0.02266  Biso   1.000  O
  O15      1.0000 0.24420  0.58270  0.47734  Biso   1.000  O
  O16      1.0000 0.74420  0.41730  0.52266  Biso   1.000  O
  O17      1.0000 0.37500  0.04850  0.02424  Biso   1.000  O
  O18      1.0000 0.87500  0.95150  0.97576  Biso   1.000  O
  O19      1.0000 0.37500  0.45150  0.52424  Biso   1.000  O
  O20      1.0000 0.87500  0.54850  0.47576  Biso   1.000  O
  O21      1.0000 0.30190  0.08250  0.92169  Biso   1.000  O
  O22      1.0000 0.80190  0.91750  0.07831  Biso   1.000  O
  O23      1.0000 0.30190  0.41750  0.42169  Biso   1.000  O
  O24      1.0000 0.80190  0.58250  0.57831  Biso   1.000  O
  O25      1.0000 0.67170  0.53210  0.03909  Biso   1.000  O
  O26      1.0000 0.17170  0.46790  0.96091  Biso   1.000  O
  O27      1.0000 0.67170  0.96790  0.53909  Biso   1.000  O
  O28      1.0000 0.17170  0.03210  0.46091  Biso   1.000  O
  O29      1.0000 0.59600  0.46580  0.93720  Biso   1.000  O
  O30      1.0000 0.09600  0.53420  0.06280  Biso   1.000  O
  O31      1.0000 0.59600  0.03420  0.43720  Biso   1.000  O
  O32      1.0000 0.09600  0.96580  0.56280  Biso   1.000  O
  C65      1.0000 0.49910  0.85330  0.75010  Biso   1.000  C
  C66      1.0000 0.99910  0.14670  0.24990  Biso   1.000  C
  C67      1.0000 0.49910  0.64670  0.25010  Biso   1.000  C
  C68      1.0000 0.99910  0.35330  0.74990  Biso   1.000  C
  H65      1.0000 0.48930  0.83930  0.78210  Biso   1.000  H
  H66      1.0000 0.98930  0.16070  0.21790  Biso   1.000  H
  H67      1.0000 0.48930  0.66070  0.28210  Biso   1.000  H
  H68      1.0000 0.98930  0.33930  0.71790  Biso   1.000  H
  H69      1.0000 0.44570  0.83400  0.73260  Biso   1.000  H
  H70      1.0000 0.94570  0.16600  0.26740  Biso   1.000  H
  H71      1.0000 0.44570  0.66600  0.23260  Biso   1.000  H
  H72      1.0000 0.94570  0.33400  0.76740  Biso   1.000  H
  C69      1.0000 0.51040  0.94630  0.74470  Biso   1.000  C
  C70      1.0000 0.01040  0.05370  0.25530  Biso   1.000  C
  C71      1.0000 0.51040  0.55370  0.24470  Biso   1.000  C
  C72      1.0000 0.01040  0.44630  0.75530  Biso   1.000  C
  H73      1.0000 0.54010  0.97110  0.77140  Biso   1.000  H
  H74      1.0000 0.04010  0.02890  0.22860  Biso   1.000  H
  H75      1.0000 0.54010  0.52890  0.27140  Biso   1.000  H
  H76      1.0000 0.04010  0.47110  0.72860  Biso   1.000  H
  H77      1.0000 0.45100  0.97370  0.73940  Biso   1.000  H
  H78      1.0000 0.95100  0.02630  0.26060  Biso   1.000  H
  H79      1.0000 0.45100  0.52630  0.23940  Biso   1.000  H
  H80      1.0000 0.95100  0.47370  0.76060  Biso   1.000  H
  C73      1.0000 0.57310  0.95160  0.70240  Biso   1.000  C
  C74      1.0000 0.07310  0.04840  0.29760  Biso   1.000  C
  C75      1.0000 0.57310  0.54840  0.20240  Biso   1.000  C
  C76      1.0000 0.07310  0.45160  0.79760  Biso   1.000  C
  H81      1.0000 0.53680  0.94870  0.67430  Biso   1.000  H
  H82      1.0000 0.03680  0.05130  0.32570  Biso   1.000  H
  H83      1.0000 0.53680  0.55130  0.17430  Biso   1.000  H
  H84      1.0000 0.03680  0.44870  0.82570  Biso   1.000  H
  H85      1.0000 0.60910  0.00310  0.70240  Biso   1.000  H
  H86      1.0000 0.10910  0.99690  0.29760  Biso   1.000  H
  H87      1.0000 0.60910  0.49690  0.20240  Biso   1.000  H
  H88      1.0000 0.10910  0.50310  0.79760  Biso   1.000  H
  C77      1.0000 0.63570  0.87520  0.70720  Biso   1.000  C
  C78      1.0000 0.13570  0.12480  0.29280  Biso   1.000  C
  C79      1.0000 0.63570  0.62480  0.20720  Biso   1.000  C
  C80      1.0000 0.13570  0.37520  0.79280  Biso   1.000  C
  H89      1.0000 0.65180  0.85270  0.67730  Biso   1.000  H
  H90      1.0000 0.15180  0.14730  0.32270  Biso   1.000  H
  H91      1.0000 0.65180  0.64730  0.17730  Biso   1.000  H
  H92      1.0000 0.15180  0.35270  0.82270  Biso   1.000  H
  H93      1.0000 0.69260  0.88980  0.72340  Biso   1.000  H
  H94      1.0000 0.19260  0.11020  0.27660  Biso   1.000  H
  H95      1.0000 0.69260  0.61020  0.22340  Biso   1.000  H
  H96      1.0000 0.19260  0.38980  0.77660  Biso   1.000  H
  C81      1.0000 0.85730  0.64940  0.76450  Biso   1.000  C
  C82      1.0000 0.35730  0.35060  0.23550  Biso   1.000  C
  C83      1.0000 0.85730  0.85060  0.26450  Biso   1.000  C
  C84      1.0000 0.35730  0.14940  0.73550  Biso   1.000  C
  H97      1.0000 0.85710  0.61450  0.73710  Biso   1.000  H
  H98      1.0000 0.35710  0.38550  0.26290  Biso   1.000  H
  H99      1.0000 0.85710  0.88550  0.23710  Biso   1.000  H
  H100     1.0000 0.35710  0.11450  0.76290  Biso   1.000  H
  H101     1.0000 0.82910  0.61810  0.78950  Biso   1.000  H
  H102     1.0000 0.32910  0.38190  0.21050  Biso   1.000  H
  H103     1.0000 0.82910  0.88190  0.28950  Biso   1.000  H
  H104     1.0000 0.32910  0.11810  0.71050  Biso   1.000  H
  C85      1.0000 0.95600  0.67490  0.77680  Biso   1.000  C
  C86      1.0000 0.45600  0.32510  0.22320  Biso   1.000  C
  C87      1.0000 0.95600  0.82510  0.27680  Biso   1.000  C
  C88      1.0000 0.45600  0.17490  0.72320  Biso   1.000  C
  H105     1.0000 0.98180  0.63820  0.80020  Biso   1.000  H
  H106     1.0000 0.48180  0.36180  0.19980  Biso   1.000  H
  H107     1.0000 0.98180  0.86180  0.30020  Biso   1.000  H
  H108     1.0000 0.48180  0.13820  0.69980  Biso   1.000  H
  H109     1.0000 0.99620  0.67390  0.75000  Biso   1.000  H
  H110     1.0000 0.49620  0.32610  0.25000  Biso   1.000  H
  H111     1.0000 0.99620  0.82610  0.25000  Biso   1.000  H
  H112     1.0000 0.49620  0.17390  0.75000  Biso   1.000  H
  C89      1.0000 0.94400  0.76260  0.79450  Biso   1.000  C
  C90      1.0000 0.44400  0.23740  0.20550  Biso   1.000  C
  C91      1.0000 0.94400  0.73740  0.29450  Biso   1.000  C
  C92      1.0000 0.44400  0.26260  0.70550  Biso   1.000  C
  H113     1.0000 0.92230  0.76280  0.82610  Biso   1.000  H
  H114     1.0000 0.42230  0.23720  0.17390  Biso   1.000  H
  H115     1.0000 0.92230  0.73720  0.32610  Biso   1.000  H
  H116     1.0000 0.42230  0.26280  0.67390  Biso   1.000  H
  H117     1.0000 0.00140  0.79450  0.79240  Biso   1.000  H
  H118     1.0000 0.50140  0.20550  0.20760  Biso   1.000  H
  H119     1.0000 0.00140  0.70550  0.29240  Biso   1.000  H
  H120     1.0000 0.50140  0.29450  0.70760  Biso   1.000  H
  C93      1.0000 0.87150  0.79590  0.76240  Biso   1.000  C
  C94      1.0000 0.37150  0.20410  0.23760  Biso   1.000  C
  C95      1.0000 0.87150  0.70410  0.26240  Biso   1.000  C
  C96      1.0000 0.37150  0.29590  0.73760  Biso   1.000  C
  H121     1.0000 0.84050  0.84440  0.77560  Biso   1.000  H
  H122     1.0000 0.34050  0.15560  0.22440  Biso   1.000  H
  H123     1.0000 0.84050  0.65560  0.27560  Biso   1.000  H
  H124     1.0000 0.34050  0.34440  0.72440  Biso   1.000  H
  H125     1.0000 0.89910  0.81190  0.73330  Biso   1.000  H
  H126     1.0000 0.39910  0.18810  0.26670  Biso   1.000  H
  H127     1.0000 0.89910  0.68810  0.23330  Biso   1.000  H
  H128     1.0000 0.39910  0.31190  0.76670  Biso   1.000  H
  C97      1.0000 0.63770  0.52310  0.77560  Biso   1.000  C
  C98      1.0000 0.13770  0.47690  0.22440  Biso   1.000  C
  C99      1.0000 0.63770  0.97690  0.27560  Biso   1.000  C
  C100     1.0000 0.13770  0.02310  0.72440  Biso   1.000  C
  H129     1.0000 0.65000  0.53390  0.80780  Biso   1.000  H
  H130     1.0000 0.15000  0.46610  0.19220  Biso   1.000  H
  H131     1.0000 0.65000  0.96610  0.30780  Biso   1.000  H
  H132     1.0000 0.15000  0.03390  0.69220  Biso   1.000  H
  H133     1.0000 0.68870  0.49000  0.76320  Biso   1.000  H
  H134     1.0000 0.18870  0.51000  0.23680  Biso   1.000  H
  H135     1.0000 0.68870  0.01000  0.26320  Biso   1.000  H
  H136     1.0000 0.18870  0.99000  0.73680  Biso   1.000  H
  C101     1.0000 0.54650  0.47640  0.77000  Biso   1.000  C
  C102     1.0000 0.04650  0.52360  0.23000  Biso   1.000  C
  C103     1.0000 0.54650  0.02360  0.27000  Biso   1.000  C
  C104     1.0000 0.04650  0.97640  0.73000  Biso   1.000  C
  H137     1.0000 0.50080  0.49460  0.79250  Biso   1.000  H
  H138     1.0000 0.00080  0.50540  0.20750  Biso   1.000  H
  H139     1.0000 0.50080  0.00540  0.29250  Biso   1.000  H
  H140     1.0000 0.00080  0.99460  0.70750  Biso   1.000  H
  H141     1.0000 0.55510  0.41610  0.77250  Biso   1.000  H
  H142     1.0000 0.05510  0.58390  0.22750  Biso   1.000  H
  H143     1.0000 0.55510  0.08390  0.27250  Biso   1.000  H
  H144     1.0000 0.05510  0.91610  0.72750  Biso   1.000  H
  C105     1.0000 0.51910  0.50220  0.72170  Biso   1.000  C
  C106     1.0000 0.01910  0.49780  0.27830  Biso   1.000  C
  C107     1.0000 0.51910  0.99780  0.22170  Biso   1.000  C
  C108     1.0000 0.01910  0.00220  0.77830  Biso   1.000  C
  H145     1.0000 0.45280  0.49500  0.71650  Biso   1.000  H
  H146     1.0000 0.95280  0.50500  0.28350  Biso   1.000  H
  H147     1.0000 0.45280  0.00500  0.21650  Biso   1.000  H
  H148     1.0000 0.95280  0.99500  0.78350  Biso   1.000  H
  H149     1.0000 0.55350  0.47070  0.69880  Biso   1.000  H
  H150     1.0000 0.05350  0.52930  0.30120  Biso   1.000  H
  H151     1.0000 0.55350  0.02930  0.19880  Biso   1.000  H
  H152     1.0000 0.05350  0.97070  0.80120  Biso   1.000  H
  C109     1.0000 0.54670  0.59530  0.72180  Biso   1.000  C
  C110     1.0000 0.04670  0.40470  0.27820  Biso   1.000  C
  C111     1.0000 0.54670  0.90470  0.22180  Biso   1.000  C
  C112     1.0000 0.04670  0.09530  0.77820  Biso   1.000  C
  H153     1.0000 0.56090  0.61430  0.69090  Biso   1.000  H
  H154     1.0000 0.06090  0.38570  0.30910  Biso   1.000  H
  H155     1.0000 0.56090  0.88570  0.19090  Biso   1.000  H
  H156     1.0000 0.06090  0.11430  0.80910  Biso   1.000  H
  H157     1.0000 0.49670  0.62970  0.73410  Biso   1.000  H
  H158     1.0000 0.99670  0.37030  0.26590  Biso   1.000  H
  H159     1.0000 0.49670  0.87030  0.23410  Biso   1.000  H
  H160     1.0000 0.99670  0.12970  0.76590  Biso   1.000  H
  C113     1.0000 0.24780  0.85410  0.01360  Biso   1.000  C
  C114     1.0000 0.74780  0.14590  0.98640  Biso   1.000  C
  C115     1.0000 0.24780  0.64590  0.51360  Biso   1.000  C
  C116     1.0000 0.74780  0.35410  0.48640  Biso   1.000  C
  H161     1.0000 0.22000  0.87570  0.04160  Biso   1.000  H
  H162     1.0000 0.72000  0.12430  0.95840  Biso   1.000  H
  H163     1.0000 0.22000  0.62430  0.54160  Biso   1.000  H
  H164     1.0000 0.72000  0.37570  0.45840  Biso   1.000  H
  H165     1.0000 0.31180  0.83840  0.02000  Biso   1.000  H
  H166     1.0000 0.81180  0.16160  0.98000  Biso   1.000  H
  H167     1.0000 0.31180  0.66160  0.52000  Biso   1.000  H
  H168     1.0000 0.81180  0.33840  0.48000  Biso   1.000  H
  C117     1.0000 0.19260  0.77810  0.99580  Biso   1.000  C
  C118     1.0000 0.69260  0.22190  0.00420  Biso   1.000  C
  C119     1.0000 0.19260  0.72190  0.49580  Biso   1.000  C
  C120     1.0000 0.69260  0.27810  0.50420  Biso   1.000  C
  H169     1.0000 0.21800  0.72580  0.00760  Biso   1.000  H
  H170     1.0000 0.71800  0.27420  0.99240  Biso   1.000  H
  H171     1.0000 0.21800  0.77420  0.50760  Biso   1.000  H
  H172     1.0000 0.71800  0.22580  0.49240  Biso   1.000  H
  H173     1.0000 0.12740  0.78200  0.00420  Biso   1.000  H
  H174     1.0000 0.62740  0.21800  0.99580  Biso   1.000  H
  H175     1.0000 0.12740  0.71800  0.50420  Biso   1.000  H
  H176     1.0000 0.62740  0.28200  0.49580  Biso   1.000  H
  C121     1.0000 0.20530  0.78450  0.94450  Biso   1.000  C
  C122     1.0000 0.70530  0.21550  0.05550  Biso   1.000  C
  C123     1.0000 0.20530  0.71550  0.44450  Biso   1.000  C
  C124     1.0000 0.70530  0.28450  0.55550  Biso   1.000  C
  H177     1.0000 0.15490  0.75670  0.92820  Biso   1.000  H
  H178     1.0000 0.65490  0.24330  0.07180  Biso   1.000  H
  H179     1.0000 0.15490  0.74330  0.42820  Biso   1.000  H
  H180     1.0000 0.65490  0.25670  0.57180  Biso   1.000  H
  H181     1.0000 0.26410  0.76010  0.93490  Biso   1.000  H
  H182     1.0000 0.76410  0.23990  0.06510  Biso   1.000  H
  H183     1.0000 0.26410  0.73990  0.43490  Biso   1.000  H
  H184     1.0000 0.76410  0.26010  0.56510  Biso   1.000  H
  C125     1.0000 0.20380  0.87980  0.93620  Biso   1.000  C
  C126     1.0000 0.70380  0.12020  0.06380  Biso   1.000  C
  C127     1.0000 0.20380  0.62020  0.43620  Biso   1.000  C
  C128     1.0000 0.70380  0.37980  0.56380  Biso   1.000  C
  H185     1.0000 0.24020  0.89420  0.90930  Biso   1.000  H
  H186     1.0000 0.74020  0.10580  0.09070  Biso   1.000  H
  H187     1.0000 0.24020  0.60580  0.40930  Biso   1.000  H
  H188     1.0000 0.74020  0.39420  0.59070  Biso   1.000  H
  H189     1.0000 0.14050  0.89940  0.93180  Biso   1.000  H
  H190     1.0000 0.64050  0.10060  0.06820  Biso   1.000  H
  H191     1.0000 0.14050  0.60060  0.43180  Biso   1.000  H
  H192     1.0000 0.64050  0.39940  0.56820  Biso   1.000  H
  C129     1.0000 0.36510  0.01000  0.06930  Biso   1.000  C
  C130     1.0000 0.86510  0.99000  0.93070  Biso   1.000  C
  C131     1.0000 0.36510  0.49000  0.56930  Biso   1.000  C
  C132     1.0000 0.86510  0.51000  0.43070  Biso   1.000  C
  H193     1.0000 0.38150  0.95090  0.06790  Biso   1.000  H
  H194     1.0000 0.88150  0.04910  0.93210  Biso   1.000  H
  H195     1.0000 0.38150  0.54910  0.56790  Biso   1.000  H
  H196     1.0000 0.88150  0.45090  0.43210  Biso   1.000  H
  H197     1.0000 0.30130  0.01470  0.07990  Biso   1.000  H
  H198     1.0000 0.80130  0.98530  0.92010  Biso   1.000  H
  H199     1.0000 0.30130  0.48530  0.57990  Biso   1.000  H
  H200     1.0000 0.80130  0.51470  0.42010  Biso   1.000  H
  C133     1.0000 0.43020  0.05620  0.10160  Biso   1.000  C
  C134     1.0000 0.93020  0.94380  0.89840  Biso   1.000  C
  C135     1.0000 0.43020  0.44380  0.60160  Biso   1.000  C
  C136     1.0000 0.93020  0.55620  0.39840  Biso   1.000  C
  H201     1.0000 0.48920  0.02710  0.10450  Biso   1.000  H
  H202     1.0000 0.98920  0.97290  0.89550  Biso   1.000  H
  H203     1.0000 0.48920  0.47290  0.60450  Biso   1.000  H
  H204     1.0000 0.98920  0.52710  0.39550  Biso   1.000  H
  H205     1.0000 0.40260  0.06260  0.13180  Biso   1.000  H
  H206     1.0000 0.90260  0.93740  0.86820  Biso   1.000  H
  H207     1.0000 0.40260  0.43740  0.63180  Biso   1.000  H
  H208     1.0000 0.90260  0.56260  0.36820  Biso   1.000  H
  C137     1.0000 0.44280  0.14170  0.07800  Biso   1.000  C
  C138     1.0000 0.94280  0.85830  0.92200  Biso   1.000  C
  C139     1.0000 0.44280  0.35830  0.57800  Biso   1.000  C
  C140     1.0000 0.94280  0.64170  0.42200  Biso   1.000  C
  H209     1.0000 0.39100  0.17910  0.08430  Biso   1.000  H
  H210     1.0000 0.89100  0.82090  0.91570  Biso   1.000  H
  H211     1.0000 0.39100  0.32090  0.58430  Biso   1.000  H
  H212     1.0000 0.89100  0.67910  0.41570  Biso   1.000  H
  H213     1.0000 0.50050  0.16860  0.08710  Biso   1.000  H
  H214     1.0000 0.00050  0.83140  0.91290  Biso   1.000  H
  H215     1.0000 0.50050  0.33140  0.58710  Biso   1.000  H
  H216     1.0000 0.00050  0.66860  0.41290  Biso   1.000  H
  C141     1.0000 0.44490  0.11420  0.02790  Biso   1.000  C
  C142     1.0000 0.94490  0.88580  0.97210  Biso   1.000  C
  C143     1.0000 0.44490  0.38580  0.52790  Biso   1.000  C
  C144     1.0000 0.94490  0.61420  0.47210  Biso   1.000  C
  H217     1.0000 0.43000  0.16090  0.00780  Biso   1.000  H
  H218     1.0000 0.93000  0.83910  0.99220  Biso   1.000  H
  H219     1.0000 0.43000  0.33910  0.50780  Biso   1.000  H
  H220     1.0000 0.93000  0.66090  0.49220  Biso   1.000  H
  H221     1.0000 0.50590  0.09270  0.01980  Biso   1.000  H
  H222     1.0000 0.00590  0.90730  0.98020  Biso   1.000  H
  H223     1.0000 0.50590  0.40730  0.51980  Biso   1.000  H
  H224     1.0000 0.00590  0.59270  0.48020  Biso   1.000  H
  C145     1.0000 0.36380  0.15320  0.91410  Biso   1.000  C
  C146     1.0000 0.86380  0.84680  0.08590  Biso   1.000  C
  C147     1.0000 0.36380  0.34680  0.41410  Biso   1.000  C
  C148     1.0000 0.86380  0.65320  0.58590  Biso   1.000  C
  H225     1.0000 0.42810  0.13630  0.91870  Biso   1.000  H
  H226     1.0000 0.92810  0.86370  0.08130  Biso   1.000  H
  H227     1.0000 0.42810  0.36370  0.41870  Biso   1.000  H
  H228     1.0000 0.92810  0.63630  0.58130  Biso   1.000  H
  H229     1.0000 0.34960  0.19830  0.93540  Biso   1.000  H
  H230     1.0000 0.84960  0.80170  0.06460  Biso   1.000  H
  H231     1.0000 0.34960  0.30170  0.43540  Biso   1.000  H
  H232     1.0000 0.84960  0.69830  0.56460  Biso   1.000  H
  C149     1.0000 0.34900  0.18150  0.86570  Biso   1.000  C
  C150     1.0000 0.84900  0.81850  0.13430  Biso   1.000  C
  C151     1.0000 0.34900  0.31850  0.36570  Biso   1.000  C
  C152     1.0000 0.84900  0.68150  0.63430  Biso   1.000  C
  H233     1.0000 0.38990  0.15190  0.84470  Biso   1.000  H
  H234     1.0000 0.88990  0.84810  0.15530  Biso   1.000  H
  H235     1.0000 0.38990  0.34810  0.34470  Biso   1.000  H
  H236     1.0000 0.88990  0.65190  0.65530  Biso   1.000  H
  H237     1.0000 0.35920  0.24150  0.86260  Biso   1.000  H
  H238     1.0000 0.85920  0.75850  0.13740  Biso   1.000  H
  H239     1.0000 0.35920  0.25850  0.36260  Biso   1.000  H
  H240     1.0000 0.85920  0.74150  0.63740  Biso   1.000  H
  C153     1.0000 0.24800  0.15900  0.85720  Biso   1.000  C
  C154     1.0000 0.74800  0.84100  0.14280  Biso   1.000  C
  C155     1.0000 0.24800  0.34100  0.35720  Biso   1.000  C
  C156     1.0000 0.74800  0.65900  0.64280  Biso   1.000  C
  H241     1.0000 0.20630  0.20080  0.87010  Biso   1.000  H
  H242     1.0000 0.70630  0.79920  0.12990  Biso   1.000  H
  H243     1.0000 0.20630  0.29920  0.37010  Biso   1.000  H
  H244     1.0000 0.70630  0.70080  0.62990  Biso   1.000  H
  H245     1.0000 0.23520  0.15260  0.82470  Biso   1.000  H
  H246     1.0000 0.73520  0.84740  0.17530  Biso   1.000  H
  H247     1.0000 0.23520  0.34740  0.32470  Biso   1.000  H
  H248     1.0000 0.73520  0.65260  0.67530  Biso   1.000  H
  C157     1.0000 0.24020  0.07650  0.88220  Biso   1.000  C
  C158     1.0000 0.74020  0.92350  0.11780  Biso   1.000  C
  C159     1.0000 0.24020  0.42350  0.38220  Biso   1.000  C
  C160     1.0000 0.74020  0.57650  0.61780  Biso   1.000  C
  H249     1.0000 0.17660  0.06690  0.89210  Biso   1.000  H
  H250     1.0000 0.67660  0.93310  0.10790  Biso   1.000  H
  H251     1.0000 0.17660  0.43310  0.39210  Biso   1.000  H
  H252     1.0000 0.67660  0.56690  0.60790  Biso   1.000  H
  H253     1.0000 0.25900  0.03050  0.86240  Biso   1.000  H
  H254     1.0000 0.75900  0.96950  0.13760  Biso   1.000  H
  H255     1.0000 0.25900  0.46950  0.36240  Biso   1.000  H
  H256     1.0000 0.75900  0.53050  0.63760  Biso   1.000  H
  C161     1.0000 0.73030  0.45930  0.03950  Biso   1.000  C
  C162     1.0000 0.23030  0.54070  0.96050  Biso   1.000  C
  C163     1.0000 0.73030  0.04070  0.53950  Biso   1.000  C
  C164     1.0000 0.23030  0.95930  0.46050  Biso   1.000  C
  H257     1.0000 0.78550  0.46860  0.02090  Biso   1.000  H
  H258     1.0000 0.28550  0.53140  0.97910  Biso   1.000  H
  H259     1.0000 0.78550  0.03140  0.52090  Biso   1.000  H
  H260     1.0000 0.28550  0.96860  0.47910  Biso   1.000  H
  H261     1.0000 0.69730  0.41080  0.02760  Biso   1.000  H
  H262     1.0000 0.19730  0.58920  0.97240  Biso   1.000  H
  H263     1.0000 0.69730  0.08920  0.52760  Biso   1.000  H
  H264     1.0000 0.19730  0.91080  0.47240  Biso   1.000  H
  C165     1.0000 0.75660  0.44580  0.08970  Biso   1.000  C
  C166     1.0000 0.25660  0.55420  0.91030  Biso   1.000  C
  C167     1.0000 0.75660  0.05420  0.58970  Biso   1.000  C
  C168     1.0000 0.25660  0.94580  0.41030  Biso   1.000  C
  H265     1.0000 0.71010  0.41280  0.10570  Biso   1.000  H
  H266     1.0000 0.21010  0.58720  0.89430  Biso   1.000  H
  H267     1.0000 0.71010  0.08720  0.60570  Biso   1.000  H
  H268     1.0000 0.21010  0.91280  0.39430  Biso   1.000  H
  H269     1.0000 0.81680  0.41870  0.09260  Biso   1.000  H
  H270     1.0000 0.31680  0.58130  0.90740  Biso   1.000  H
  H271     1.0000 0.81680  0.08130  0.59260  Biso   1.000  H
  H272     1.0000 0.31680  0.91870  0.40740  Biso   1.000  H
  C169     1.0000 0.75940  0.53530  0.10730  Biso   1.000  C
  C170     1.0000 0.25940  0.46470  0.89270  Biso   1.000  C
  C171     1.0000 0.75940  0.96470  0.60730  Biso   1.000  C
  C172     1.0000 0.25940  0.03530  0.39270  Biso   1.000  C
  H273     1.0000 0.74790  0.53730  0.14010  Biso   1.000  H
  H274     1.0000 0.24790  0.46270  0.85990  Biso   1.000  H
  H275     1.0000 0.74790  0.96270  0.64010  Biso   1.000  H
  H276     1.0000 0.24790  0.03730  0.35990  Biso   1.000  H
  H277     1.0000 0.81920  0.56110  0.10090  Biso   1.000  H
  H278     1.0000 0.31920  0.43890  0.89910  Biso   1.000  H
  H279     1.0000 0.81920  0.93890  0.60090  Biso   1.000  H
  H280     1.0000 0.31920  0.06110  0.39910  Biso   1.000  H
  C173     1.0000 0.68280  0.57860  0.08120  Biso   1.000  C
  C174     1.0000 0.18280  0.42140  0.91880  Biso   1.000  C
  C175     1.0000 0.68280  0.92140  0.58120  Biso   1.000  C
  C176     1.0000 0.18280  0.07860  0.41880  Biso   1.000  C
  H281     1.0000 0.62540  0.57810  0.09880  Biso   1.000  H
  H282     1.0000 0.12540  0.42190  0.90120  Biso   1.000  H
  H283     1.0000 0.62540  0.92190  0.59880  Biso   1.000  H
  H284     1.0000 0.12540  0.07810  0.40120  Biso   1.000  H
  H285     1.0000 0.69950  0.63650  0.07470  Biso   1.000  H
  H286     1.0000 0.19950  0.36350  0.92530  Biso   1.000  H
  H287     1.0000 0.69950  0.86350  0.57470  Biso   1.000  H
  H288     1.0000 0.19950  0.13650  0.42530  Biso   1.000  H
  C177     1.0000 0.66530  0.42640  0.91040  Biso   1.000  C
  C178     1.0000 0.16530  0.57360  0.08960  Biso   1.000  C
  C179     1.0000 0.66530  0.07360  0.41040  Biso   1.000  C
  C180     1.0000 0.16530  0.92640  0.58960  Biso   1.000  C
  H289     1.0000 0.71400  0.40350  0.92980  Biso   1.000  H
  H290     1.0000 0.21400  0.59650  0.07020  Biso   1.000  H
  H291     1.0000 0.71400  0.09650  0.42980  Biso   1.000  H
  H292     1.0000 0.21400  0.90350  0.57020  Biso   1.000  H
  H293     1.0000 0.69310  0.46620  0.88920  Biso   1.000  H
  H294     1.0000 0.19310  0.53380  0.11080  Biso   1.000  H
  H295     1.0000 0.69310  0.03380  0.38920  Biso   1.000  H
  H296     1.0000 0.19310  0.96620  0.61080  Biso   1.000  H
  C181     1.0000 0.61670  0.35700  0.88450  Biso   1.000  C
  C182     1.0000 0.11670  0.64300  0.11550  Biso   1.000  C
  C183     1.0000 0.61670  0.14300  0.38450  Biso   1.000  C
  C184     1.0000 0.11670  0.85700  0.61550  Biso   1.000  C
  H297     1.0000 0.62850  0.30280  0.89860  Biso   1.000  H
  H298     1.0000 0.12850  0.69720  0.10140  Biso   1.000  H
  H299     1.0000 0.62850  0.19720  0.39860  Biso   1.000  H
  H300     1.0000 0.12850  0.80280  0.60140  Biso   1.000  H
  H301     1.0000 0.63710  0.35520  0.85270  Biso   1.000  H
  H302     1.0000 0.13710  0.64480  0.14730  Biso   1.000  H
  H303     1.0000 0.63710  0.14480  0.35270  Biso   1.000  H
  H304     1.0000 0.13710  0.85520  0.64730  Biso   1.000  H
  C185     1.0000 0.51250  0.38010  0.88760  Biso   1.000  C
  C186     1.0000 0.01250  0.61990  0.11240  Biso   1.000  C
  C187     1.0000 0.51250  0.11990  0.38760  Biso   1.000  C
  C188     1.0000 0.01250  0.88010  0.61240  Biso   1.000  C
  H305     1.0000 0.48390  0.38110  0.85740  Biso   1.000  H
  H306     1.0000 0.98390  0.61890  0.14260  Biso   1.000  H
  H307     1.0000 0.48390  0.11890  0.35740  Biso   1.000  H
  H308     1.0000 0.98390  0.88110  0.64260  Biso   1.000  H
  H309     1.0000 0.47900  0.34070  0.90690  Biso   1.000  H
  H310     1.0000 0.97900  0.65930  0.09310  Biso   1.000  H
  H311     1.0000 0.47900  0.15930  0.40690  Biso   1.000  H
  H312     1.0000 0.97900  0.84070  0.59310  Biso   1.000  H
  C189     1.0000 0.51380  0.46720  0.90890  Biso   1.000  C
  C190     1.0000 0.01380  0.53280  0.09110  Biso   1.000  C
  C191     1.0000 0.51380  0.03280  0.40890  Biso   1.000  C
  C192     1.0000 0.01380  0.96720  0.59110  Biso   1.000  C
  H313     1.0000 0.51820  0.51040  0.88540  Biso   1.000  H
  H314     1.0000 0.01820  0.48960  0.11460  Biso   1.000  H
  H315     1.0000 0.51820  0.98960  0.38540  Biso   1.000  H
  H316     1.0000 0.01820  0.01040  0.61460  Biso   1.000  H
  H317     1.0000 0.45840  0.47700  0.92720  Biso   1.000  H
  H318     1.0000 0.95840  0.52300  0.07280  Biso   1.000  H
  H319     1.0000 0.45840  0.02300  0.42720  Biso   1.000  H
  H320     1.0000 0.95840  0.97700  0.57280  Biso   1.000  H
