data_image0
_cell_length_a       10.1624
_cell_length_b       21.5001
_cell_length_c       27.9291
_cell_angle_alpha    104.614
_cell_angle_beta     99.824
_cell_angle_gamma    101.566

_symmetry_space_group_name_H-M    "P 1"
_symmetry_int_tables_number       1

loop_
  _symmetry_equiv_pos_as_xyz
  'x, y, z'

loop_
  _atom_site_label
  _atom_site_occupancy
  _atom_site_fract_x
  _atom_site_fract_y
  _atom_site_fract_z
  _atom_site_thermal_displace_type
  _atom_site_B_iso_or_equiv
  _atom_site_type_symbol
  La1      1.0000 0.89887  0.14072  0.50116  Biso   1.000  La
  La2      1.0000 0.10113  0.85928  0.49884  Biso   1.000  La
  La3      1.0000 0.89221  0.34093  0.55990  Biso   1.000  La
  La4      1.0000 0.10779  0.65907  0.44010  Biso   1.000  La
  La5      1.0000 0.47919  0.34655  0.49336  Biso   1.000  La
  La6      1.0000 0.52081  0.65345  0.50664  Biso   1.000  La
  La7      1.0000 0.24536  0.14461  0.44767  Biso   1.000  La
  La8      1.0000 0.75464  0.85539  0.55233  Biso   1.000  La
  Cu1      1.0000 0.90680  0.51310  0.97012  Biso   1.000  Cu
  Cu2      1.0000 0.09320  0.48690  0.02988  Biso   1.000  Cu
  Cu3      1.0000 0.76970  0.37228  0.07133  Biso   1.000  Cu
  Cu4      1.0000 0.23030  0.62772  0.92867  Biso   1.000  Cu
  Cu5      1.0000 0.67710  0.29658  0.97735  Biso   1.000  Cu
  Cu6      1.0000 0.32290  0.70342  0.02265  Biso   1.000  Cu
  Cu7      1.0000 0.30990  0.26802  0.00077  Biso   1.000  Cu
  Cu8      1.0000 0.69010  0.73198  0.99923  Biso   1.000  Cu
  Cu9      1.0000 0.79540  0.20654  0.01897  Biso   1.000  Cu
  Cu10     1.0000 0.20460  0.79346  0.98103  Biso   1.000  Cu
  Cu11     1.0000 0.67200  0.09265  0.92228  Biso   1.000  Cu
  Cu12     1.0000 0.32800  0.90735  0.07772  Biso   1.000  Cu
  Cu13     1.0000 0.79060  0.04213  0.98309  Biso   1.000  Cu
  Cu14     1.0000 0.20940  0.95787  0.01691  Biso   1.000  Cu
  Na1      1.0000 0.67700  0.03210  0.56470  Biso   1.000  Na
  Na2      1.0000 0.32300  0.96790  0.43530  Biso   1.000  Na
  I1       1.0000 0.11035  0.47668  0.93756  Biso   1.000  I
  I2       1.0000 0.88965  0.52332  0.06244  Biso   1.000  I
  I3       1.0000 0.94738  0.33137  0.02469  Biso   1.000  I
  I4       1.0000 0.05262  0.66863  0.97531  Biso   1.000  I
  I5       1.0000 0.53149  0.37638  0.02369  Biso   1.000  I
  I6       1.0000 0.46851  0.62362  0.97631  Biso   1.000  I
  I7       1.0000 0.53140  0.17472  0.97222  Biso   1.000  I
  I8       1.0000 0.46860  0.82528  0.02778  Biso   1.000  I
  I9       1.0000 0.94291  0.13901  0.96378  Biso   1.000  I
  I10      1.0000 0.05709  0.86099  0.03622  Biso   1.000  I
  I11      1.0000 0.57007  0.96827  0.92268  Biso   1.000  I
  I12      1.0000 0.42993  0.03173  0.07732  Biso   1.000  I
  C1       1.0000 0.74470  0.51190  0.87210  Biso   1.000  C
  C2       1.0000 0.25530  0.48810  0.12790  Biso   1.000  C
  H1       1.0000 0.83170  0.52730  0.86690  Biso   1.000  H
  H2       1.0000 0.16830  0.47270  0.13310  Biso   1.000  H
  C3       1.0000 0.61360  0.47640  0.92360  Biso   1.000  C
  C4       1.0000 0.38640  0.52360  0.07640  Biso   1.000  C
  H3       1.0000 0.60530  0.46710  0.95390  Biso   1.000  H
  H4       1.0000 0.39470  0.53290  0.04610  Biso   1.000  H
  C5       1.0000 0.63260  0.50340  0.83400  Biso   1.000  C
  C6       1.0000 0.36740  0.49660  0.16600  Biso   1.000  C
  H5       1.0000 0.64320  0.51290  0.80400  Biso   1.000  H
  H6       1.0000 0.35680  0.48710  0.19600  Biso   1.000  H
  C7       1.0000 0.49580  0.46600  0.88600  Biso   1.000  C
  C8       1.0000 0.50420  0.53400  0.11400  Biso   1.000  C
  H7       1.0000 0.41030  0.44880  0.89170  Biso   1.000  H
  H8       1.0000 0.58970  0.55120  0.10830  Biso   1.000  H
  C9       1.0000 0.49960  0.47950  0.84170  Biso   1.000  C
  C10      1.0000 0.50040  0.52050  0.15830  Biso   1.000  C
  C11      1.0000 0.37260  0.47120  0.80100  Biso   1.000  C
  C12      1.0000 0.62740  0.52880  0.19900  Biso   1.000  C
  C13      1.0000 0.37330  0.46230  0.75020  Biso   1.000  C
  C14      1.0000 0.62670  0.53770  0.24980  Biso   1.000  C
  H9       1.0000 0.45560  0.46210  0.73990  Biso   1.000  H
  H10      1.0000 0.54440  0.53790  0.26010  Biso   1.000  H
  C15      1.0000 0.24750  0.47190  0.81490  Biso   1.000  C
  C16      1.0000 0.75250  0.52810  0.18510  Biso   1.000  C
  H11      1.0000 0.24430  0.47660  0.84870  Biso   1.000  H
  H12      1.0000 0.75570  0.52340  0.15130  Biso   1.000  H
  C17      1.0000 0.25470  0.45370  0.71500  Biso   1.000  C
  C18      1.0000 0.74530  0.54630  0.28500  Biso   1.000  C
  H13      1.0000 0.25740  0.44690  0.68100  Biso   1.000  H
  H14      1.0000 0.74260  0.55310  0.31900  Biso   1.000  H
  C19      1.0000 0.12690  0.46570  0.77970  Biso   1.000  C
  C20      1.0000 0.87310  0.53430  0.22030  Biso   1.000  C
  H15      1.0000 0.04580  0.46890  0.79020  Biso   1.000  H
  H16      1.0000 0.95420  0.53110  0.20980  Biso   1.000  H
  C21      1.0000 0.12920  0.45480  0.72910  Biso   1.000  C
  C22      1.0000 0.87080  0.54520  0.27090  Biso   1.000  C
  C23      1.0000 0.99950  0.44560  0.69010  Biso   1.000  C
  C24      1.0000 0.00050  0.55440  0.30990  Biso   1.000  C
  C25      1.0000 0.53820  0.28590  0.87350  Biso   1.000  C
  C26      1.0000 0.46180  0.71410  0.12650  Biso   1.000  C
  H17      1.0000 0.46160  0.26840  0.88460  Biso   1.000  H
  H18      1.0000 0.53840  0.73160  0.11540  Biso   1.000  H
  C27      1.0000 0.76460  0.33040  0.88910  Biso   1.000  C
  C28      1.0000 0.23540  0.66960  0.11090  Biso   1.000  C
  H19      1.0000 0.85130  0.34480  0.91130  Biso   1.000  H
  H20      1.0000 0.14870  0.65520  0.08870  Biso   1.000  H
  C29      1.0000 0.51660  0.29080  0.82500  Biso   1.000  C
  C30      1.0000 0.48340  0.70920  0.17500  Biso   1.000  C
  H21      1.0000 0.42810  0.27660  0.80410  Biso   1.000  H
  H22      1.0000 0.57190  0.72340  0.19590  Biso   1.000  H
  C31      1.0000 0.75690  0.33860  0.84160  Biso   1.000  C
  C32      1.0000 0.24310  0.66140  0.15840  Biso   1.000  C
  H23      1.0000 0.83570  0.35810  0.83270  Biso   1.000  H
  H24      1.0000 0.16430  0.64190  0.16730  Biso   1.000  H
  C33      1.0000 0.62970  0.31740  0.80710  Biso   1.000  C
  C34      1.0000 0.37030  0.68260  0.19290  Biso   1.000  C
  C35      1.0000 0.61230  0.32210  0.75460  Biso   1.000  C
  C36      1.0000 0.38770  0.67790  0.24540  Biso   1.000  C
  C37      1.0000 0.48710  0.32530  0.72670  Biso   1.000  C
  C38      1.0000 0.51290  0.67470  0.27330  Biso   1.000  C
  H25      1.0000 0.41190  0.32380  0.74160  Biso   1.000  H
  H26      1.0000 0.58810  0.67620  0.25840  Biso   1.000  H
  C39      1.0000 0.72130  0.32230  0.73060  Biso   1.000  C
  C40      1.0000 0.27870  0.67770  0.26940  Biso   1.000  C
  H27      1.0000 0.80520  0.31900  0.74780  Biso   1.000  H
  H28      1.0000 0.19480  0.68100  0.25220  Biso   1.000  H
  C41      1.0000 0.47060  0.33060  0.67750  Biso   1.000  C
  C42      1.0000 0.52940  0.66940  0.32250  Biso   1.000  C
  H29      1.0000 0.38600  0.33310  0.66030  Biso   1.000  H
  H30      1.0000 0.61400  0.66690  0.33970  Biso   1.000  H
  C43      1.0000 0.70730  0.32740  0.68070  Biso   1.000  C
  C44      1.0000 0.29270  0.67260  0.31930  Biso   1.000  C
  H31      1.0000 0.78180  0.32770  0.66540  Biso   1.000  H
  H32      1.0000 0.21820  0.67230  0.33460  Biso   1.000  H
  C45      1.0000 0.58170  0.33200  0.65420  Biso   1.000  C
  C46      1.0000 0.41830  0.66800  0.34580  Biso   1.000  C
  C47      1.0000 0.56400  0.33830  0.60250  Biso   1.000  C
  C48      1.0000 0.43600  0.66170  0.39750  Biso   1.000  C
  C49      1.0000 0.19950  0.30740  0.91470  Biso   1.000  C
  C50      1.0000 0.80050  0.69260  0.08530  Biso   1.000  C
  H33      1.0000 0.21730  0.34850  0.93900  Biso   1.000  H
  H34      1.0000 0.78270  0.65150  0.06100  Biso   1.000  H
  C51      1.0000 0.19230  0.19640  0.89500  Biso   1.000  C
  C52      1.0000 0.80770  0.80360  0.10500  Biso   1.000  C
  H35      1.0000 0.20350  0.15940  0.90510  Biso   1.000  H
  H36      1.0000 0.79650  0.84060  0.09490  Biso   1.000  H
  C53      1.0000 0.14750  0.30160  0.86540  Biso   1.000  C
  C54      1.0000 0.85250  0.69840  0.13460  Biso   1.000  C
  H37      1.0000 0.13290  0.33890  0.85650  Biso   1.000  H
  H38      1.0000 0.86710  0.66110  0.14350  Biso   1.000  H
  C55      1.0000 0.14020  0.18830  0.84390  Biso   1.000  C
  C56      1.0000 0.85980  0.81170  0.15610  Biso   1.000  C
  H39      1.0000 0.12170  0.14670  0.82020  Biso   1.000  H
  H40      1.0000 0.87830  0.85330  0.17980  Biso   1.000  H
  C57      1.0000 0.11570  0.24150  0.82830  Biso   1.000  C
  C58      1.0000 0.88430  0.75850  0.17170  Biso   1.000  C
  C59      1.0000 0.05520  0.23330  0.77390  Biso   1.000  C
  C60      1.0000 0.94480  0.76670  0.22610  Biso   1.000  C
  C61      1.0000 0.09410  0.28260  0.75050  Biso   1.000  C
  C62      1.0000 0.90590  0.71740  0.24950  Biso   1.000  C
  H41      1.0000 0.15780  0.32220  0.76990  Biso   1.000  H
  H42      1.0000 0.84220  0.67780  0.23010  Biso   1.000  H
  C63      1.0000 0.95930  0.17480  0.74410  Biso   1.000  C
  C64      1.0000 0.04070  0.82520  0.25590  Biso   1.000  C
  H43      1.0000 0.93220  0.14120  0.75850  Biso   1.000  H
  H44      1.0000 0.06780  0.85880  0.24150  Biso   1.000  H
  C65      1.0000 0.04160  0.27420  0.70040  Biso   1.000  C
  C66      1.0000 0.95840  0.72580  0.29960  Biso   1.000  C
  H45      1.0000 0.06900  0.30800  0.68630  Biso   1.000  H
  H46      1.0000 0.93100  0.69200  0.31370  Biso   1.000  H
  C67      1.0000 0.90370  0.16590  0.69340  Biso   1.000  C
  C68      1.0000 0.09630  0.83410  0.30660  Biso   1.000  C
  H47      1.0000 0.83730  0.12700  0.67420  Biso   1.000  H
  H48      1.0000 0.16270  0.87300  0.32580  Biso   1.000  H
  C69      1.0000 0.94730  0.21530  0.67050  Biso   1.000  C
  C70      1.0000 0.05270  0.78470  0.32950  Biso   1.000  C
  C71      1.0000 0.89260  0.20200  0.61460  Biso   1.000  C
  C72      1.0000 0.10740  0.79800  0.38540  Biso   1.000  C
  C73      1.0000 0.68110  0.14330  0.83260  Biso   1.000  C
  C74      1.0000 0.31890  0.85670  0.16740  Biso   1.000  C
  H49      1.0000 0.76740  0.16950  0.85190  Biso   1.000  H
  H50      1.0000 0.23260  0.83050  0.14810  Biso   1.000  H
  C75      1.0000 0.49170  0.05780  0.82100  Biso   1.000  C
  C76      1.0000 0.50830  0.94220  0.17900  Biso   1.000  C
  H51      1.0000 0.44580  0.02360  0.83160  Biso   1.000  H
  H52      1.0000 0.55420  0.97640  0.16840  Biso   1.000  H
  C77      1.0000 0.62990  0.15430  0.78840  Biso   1.000  C
  C78      1.0000 0.37010  0.84570  0.21160  Biso   1.000  C
  H53      1.0000 0.68240  0.18690  0.77800  Biso   1.000  H
  H54      1.0000 0.31760  0.81310  0.22200  Biso   1.000  H
  C79      1.0000 0.43170  0.06720  0.77600  Biso   1.000  C
  C80      1.0000 0.56830  0.93280  0.22400  Biso   1.000  C
  H55      1.0000 0.34570  0.03990  0.75730  Biso   1.000  H
  H56      1.0000 0.65430  0.96010  0.24270  Biso   1.000  H
  C81      1.0000 0.49890  0.11760  0.75800  Biso   1.000  C
  C82      1.0000 0.50110  0.88240  0.24200  Biso   1.000  C
  C83      1.0000 0.43330  0.13190  0.71290  Biso   1.000  C
  C84      1.0000 0.56670  0.86810  0.28710  Biso   1.000  C
  C85      1.0000 0.29170  0.12320  0.69920  Biso   1.000  C
  C86      1.0000 0.70830  0.87680  0.30080  Biso   1.000  C
  H57      1.0000 0.23740  0.10860  0.71980  Biso   1.000  H
  H58      1.0000 0.76260  0.89140  0.28020  Biso   1.000  H
  C87      1.0000 0.51170  0.15200  0.68060  Biso   1.000  C
  C88      1.0000 0.48830  0.84800  0.31940  Biso   1.000  C
  H59      1.0000 0.60690  0.15790  0.68890  Biso   1.000  H
  H60      1.0000 0.39310  0.84210  0.31110  Biso   1.000  H
  C89      1.0000 0.22810  0.13550  0.65550  Biso   1.000  C
  C90      1.0000 0.77190  0.86450  0.34450  Biso   1.000  C
  H61      1.0000 0.13320  0.13090  0.64790  Biso   1.000  H
  H62      1.0000 0.86680  0.86910  0.35210  Biso   1.000  H
  C91      1.0000 0.45100  0.16310  0.63640  Biso   1.000  C
  C92      1.0000 0.54900  0.83690  0.36360  Biso   1.000  C
  H63      1.0000 0.50460  0.17630  0.61510  Biso   1.000  H
  H64      1.0000 0.49540  0.82370  0.38490  Biso   1.000  H
  C93      1.0000 0.30640  0.15440  0.62400  Biso   1.000  C
  C94      1.0000 0.69360  0.84560  0.37600  Biso   1.000  C
  C95      1.0000 0.24020  0.16030  0.57240  Biso   1.000  C
  C96      1.0000 0.75980  0.83970  0.42760  Biso   1.000  C
  C97      1.0000 0.78950  0.99450  0.07200  Biso   1.000  C
  C98      1.0000 0.21050  0.00550  0.92800  Biso   1.000  C
  H65      1.0000 0.69580  0.97730  0.05690  Biso   1.000  H
  H66      1.0000 0.30420  0.02270  0.94310  Biso   1.000  H
  C99      1.0000 0.00750  0.04610  0.06860  Biso   1.000  C
  C100     1.0000 0.99250  0.95390  0.93140  Biso   1.000  C
  H67      1.0000 0.06750  0.06530  0.05160  Biso   1.000  H
  H68      1.0000 0.93250  0.93470  0.94840  Biso   1.000  H
  C101     1.0000 0.83700  0.98740  0.11860  Biso   1.000  C
  C102     1.0000 0.16300  0.01260  0.88140  Biso   1.000  C
  H69      1.0000 0.77610  0.96630  0.13440  Biso   1.000  H
  H70      1.0000 0.22390  0.03370  0.86560  Biso   1.000  H
  C103     1.0000 0.06060  0.03970  0.11560  Biso   1.000  C
  C104     1.0000 0.93940  0.96030  0.88440  Biso   1.000  C
  H71      1.0000 0.15520  0.05460  0.12950  Biso   1.000  H
  H72      1.0000 0.84480  0.94540  0.87050  Biso   1.000  H
  C105     1.0000 0.97580  0.01160  0.14210  Biso   1.000  C
  C106     1.0000 0.02420  0.98840  0.85790  Biso   1.000  C
  C107     1.0000 0.03480  0.00680  0.19290  Biso   1.000  C
  C108     1.0000 0.96520  0.99320  0.80710  Biso   1.000  C
  C109     1.0000 0.96150  0.01700  0.23130  Biso   1.000  C
  C110     1.0000 0.03850  0.98300  0.76870  Biso   1.000  C
  H73      1.0000 0.87340  0.02350  0.22390  Biso   1.000  H
  H74      1.0000 0.12660  0.97650  0.77610  Biso   1.000  H
  C111     1.0000 0.16550  0.99630  0.20490  Biso   1.000  C
  C112     1.0000 0.83450  0.00370  0.79510  Biso   1.000  C
  H75      1.0000 0.21640  0.99030  0.18010  Biso   1.000  H
  H76      1.0000 0.78360  0.00970  0.81990  Biso   1.000  H
  C113     1.0000 0.01930  0.01740  0.28010  Biso   1.000  C
  C114     1.0000 0.98070  0.98260  0.71990  Biso   1.000  C
  H77      1.0000 0.96920  0.02410  0.30510  Biso   1.000  H
  H78      1.0000 0.03080  0.97590  0.69490  Biso   1.000  H
  C115     1.0000 0.22020  0.99480  0.25330  Biso   1.000  C
  C116     1.0000 0.77980  0.00520  0.74670  Biso   1.000  C
  H79      1.0000 0.30500  0.98480  0.26030  Biso   1.000  H
  H80      1.0000 0.69500  0.01520  0.73970  Biso   1.000  H
  C117     1.0000 0.14860  0.00820  0.29210  Biso   1.000  C
  C118     1.0000 0.85140  0.99180  0.70790  Biso   1.000  C
  C119     1.0000 0.21150  0.00910  0.34530  Biso   1.000  C
  C120     1.0000 0.78850  0.99090  0.65470  Biso   1.000  C
  C121     1.0000 0.28500  0.30680  0.10410  Biso   1.000  C
  C122     1.0000 0.71500  0.69320  0.89590  Biso   1.000  C
  H81      1.0000 0.26950  0.34480  0.09650  Biso   1.000  H
  H82      1.0000 0.73050  0.65520  0.90350  Biso   1.000  H
  C123     1.0000 0.32020  0.20400  0.07810  Biso   1.000  C
  C124     1.0000 0.67980  0.79600  0.92190  Biso   1.000  C
  H83      1.0000 0.33050  0.16910  0.05280  Biso   1.000  H
  H84      1.0000 0.66950  0.83090  0.94720  Biso   1.000  H
  C125     1.0000 0.29190  0.30400  0.15290  Biso   1.000  C
  C126     1.0000 0.70810  0.69600  0.84710  Biso   1.000  C
  H85      1.0000 0.28150  0.34010  0.17720  Biso   1.000  H
  H86      1.0000 0.71850  0.65990  0.82280  Biso   1.000  H
  C127     1.0000 0.32760  0.19780  0.12770  Biso   1.000  C
  C128     1.0000 0.67240  0.80220  0.87230  Biso   1.000  C
  H87      1.0000 0.34170  0.15890  0.13410  Biso   1.000  H
  H88      1.0000 0.65830  0.84110  0.86590  Biso   1.000  H
  C129     1.0000 0.31420  0.24830  0.16700  Biso   1.000  C
  C130     1.0000 0.68580  0.75170  0.83300  Biso   1.000  C
  C131     1.0000 0.32860  0.24300  0.21990  Biso   1.000  C
  C132     1.0000 0.67140  0.75700  0.78010  Biso   1.000  C
  C133     1.0000 0.31620  0.29510  0.25980  Biso   1.000  C
  C134     1.0000 0.68380  0.70490  0.74020  Biso   1.000  C
  H89      1.0000 0.30210  0.33390  0.25330  Biso   1.000  H
  H90      1.0000 0.69790  0.66610  0.74670  Biso   1.000  H
  C135     1.0000 0.34820  0.18620  0.23060  Biso   1.000  C
  C136     1.0000 0.65180  0.81380  0.76940  Biso   1.000  C
  H91      1.0000 0.35460  0.15090  0.20460  Biso   1.000  H
  H92      1.0000 0.64540  0.84910  0.79540  Biso   1.000  H
  C137     1.0000 0.32460  0.28960  0.30720  Biso   1.000  C
  C138     1.0000 0.67540  0.71040  0.69280  Biso   1.000  C
  H93      1.0000 0.31570  0.32450  0.33290  Biso   1.000  H
  H94      1.0000 0.68430  0.67550  0.66710  Biso   1.000  H
  C139     1.0000 0.35870  0.18020  0.27960  Biso   1.000  C
  C140     1.0000 0.64130  0.81980  0.72040  Biso   1.000  C
  H95      1.0000 0.37400  0.14170  0.28640  Biso   1.000  H
  H96      1.0000 0.62600  0.85830  0.71360  Biso   1.000  H
  C141     1.0000 0.34620  0.23230  0.31810  Biso   1.000  C
  C142     1.0000 0.65380  0.76770  0.68190  Biso   1.000  C
  C143     1.0000 0.35060  0.22490  0.37080  Biso   1.000  C
  C144     1.0000 0.64940  0.77510  0.62920  Biso   1.000  C
  C145     1.0000 0.92590  0.19480  0.11640  Biso   1.000  C
  C146     1.0000 0.07410  0.80520  0.88360  Biso   1.000  C
  H97      1.0000 0.99940  0.19420  0.10070  Biso   1.000  H
  H98      1.0000 0.00060  0.80580  0.89930  Biso   1.000  H
  C147     1.0000 0.70730  0.19710  0.11390  Biso   1.000  C
  C148     1.0000 0.29270  0.80290  0.88610  Biso   1.000  C
  H99      1.0000 0.62370  0.19990  0.09610  Biso   1.000  H
  H100     1.0000 0.37630  0.80010  0.90390  Biso   1.000  H
  C149     1.0000 0.94650  0.19090  0.16690  Biso   1.000  C
  C150     1.0000 0.05350  0.80910  0.83310  Biso   1.000  C
  H101     1.0000 0.03240  0.18950  0.18390  Biso   1.000  H
  H102     1.0000 0.96760  0.81050  0.81610  Biso   1.000  H
  C151     1.0000 0.71520  0.19120  0.16160  Biso   1.000  C
  C152     1.0000 0.28480  0.80880  0.83840  Biso   1.000  C
  H103     1.0000 0.63710  0.18840  0.17490  Biso   1.000  H
  H104     1.0000 0.36290  0.81160  0.82510  Biso   1.000  H
  C153     1.0000 0.83800  0.18920  0.19050  Biso   1.000  C
  C154     1.0000 0.16200  0.81080  0.80950  Biso   1.000  C
  C155     1.0000 0.85300  0.18350  0.24320  Biso   1.000  C
  C156     1.0000 0.14700  0.81650  0.75680  Biso   1.000  C
  C157     1.0000 0.97760  0.18200  0.27110  Biso   1.000  C
  C158     1.0000 0.02240  0.81800  0.72890  Biso   1.000  C
  H105     1.0000 0.05410  0.18450  0.25690  Biso   1.000  H
  H106     1.0000 0.94590  0.81550  0.74310  Biso   1.000  H
  C159     1.0000 0.74310  0.18160  0.26740  Biso   1.000  C
  C160     1.0000 0.25690  0.81840  0.73260  Biso   1.000  C
  H107     1.0000 0.65840  0.18420  0.25030  Biso   1.000  H
  H108     1.0000 0.34160  0.81580  0.74970  Biso   1.000  H
  C161     1.0000 0.75770  0.17600  0.31710  Biso   1.000  C
  C162     1.0000 0.24230  0.82400  0.68290  Biso   1.000  C
  H109     1.0000 0.68260  0.17430  0.33220  Biso   1.000  H
  H110     1.0000 0.31740  0.82570  0.66780  Biso   1.000  H
  C163     1.0000 0.99000  0.17690  0.31960  Biso   1.000  C
  C164     1.0000 0.01000  0.82310  0.68040  Biso   1.000  C
  H111     1.0000 0.07580  0.17600  0.33700  Biso   1.000  H
  H112     1.0000 0.92420  0.82400  0.66300  Biso   1.000  H
  C165     1.0000 0.88330  0.17300  0.34380  Biso   1.000  C
  C166     1.0000 0.11670  0.82700  0.65620  Biso   1.000  C
  C167     1.0000 0.89750  0.16450  0.39620  Biso   1.000  C
  C168     1.0000 0.10250  0.83550  0.60380  Biso   1.000  C
  C169     1.0000 0.89810  0.36990  0.17410  Biso   1.000  C
  C170     1.0000 0.10190  0.63010  0.82590  Biso   1.000  C
  H113     1.0000 0.97750  0.37040  0.16170  Biso   1.000  H
  H114     1.0000 0.02250  0.62960  0.83830  Biso   1.000  H
  C171     1.0000 0.67020  0.36710  0.16320  Biso   1.000  C
  C172     1.0000 0.32980  0.63290  0.83680  Biso   1.000  C
  H115     1.0000 0.58700  0.36680  0.14310  Biso   1.000  H
  H116     1.0000 0.41300  0.63320  0.85690  Biso   1.000  H
  C173     1.0000 0.90740  0.36980  0.22310  Biso   1.000  C
  C174     1.0000 0.09260  0.63020  0.77690  Biso   1.000  C
  H117     1.0000 0.99220  0.37150  0.24300  Biso   1.000  H
  H118     1.0000 0.00780  0.62850  0.75700  Biso   1.000  H
  C175     1.0000 0.67110  0.36540  0.21200  Biso   1.000  C
  C176     1.0000 0.32890  0.63460  0.78800  Biso   1.000  C
  H119     1.0000 0.58970  0.36310  0.22320  Biso   1.000  H
  H120     1.0000 0.41030  0.63690  0.77680  Biso   1.000  H
  C177     1.0000 0.79030  0.36710  0.24460  Biso   1.000  C
  C178     1.0000 0.20970  0.63290  0.75540  Biso   1.000  C
  C179     1.0000 0.79500  0.36410  0.29760  Biso   1.000  C
  C180     1.0000 0.20500  0.63590  0.70240  Biso   1.000  C
  C181     1.0000 0.91050  0.35930  0.32850  Biso   1.000  C
  C182     1.0000 0.08950  0.64070  0.67150  Biso   1.000  C
  H121     1.0000 0.98980  0.35860  0.31620  Biso   1.000  H
  H122     1.0000 0.01020  0.64140  0.68380  Biso   1.000  H
  C183     1.0000 0.68180  0.36990  0.31990  Biso   1.000  C
  C184     1.0000 0.31820  0.63010  0.68010  Biso   1.000  C
  H123     1.0000 0.60440  0.37720  0.30130  Biso   1.000  H
  H124     1.0000 0.39560  0.62280  0.69870  Biso   1.000  H
  C185     1.0000 0.91310  0.35530  0.37710  Biso   1.000  C
  C186     1.0000 0.08690  0.64470  0.62290  Biso   1.000  C
  H125     1.0000 0.99350  0.35200  0.39680  Biso   1.000  H
  H126     1.0000 0.00650  0.64800  0.60320  Biso   1.000  H
  C187     1.0000 0.68200  0.36500  0.36760  Biso   1.000  C
  C188     1.0000 0.31800  0.63500  0.63240  Biso   1.000  C
  H127     1.0000 0.60410  0.36770  0.38060  Biso   1.000  H
  H128     1.0000 0.39590  0.63230  0.61940  Biso   1.000  H
  C189     1.0000 0.79800  0.35600  0.39690  Biso   1.000  C
  C190     1.0000 0.20200  0.64400  0.60310  Biso   1.000  C
  C191     1.0000 0.80370  0.35110  0.44890  Biso   1.000  C
  C192     1.0000 0.19630  0.64890  0.55110  Biso   1.000  C
  C193     1.0000 0.59680  0.19550  0.49010  Biso   1.000  C
  C194     1.0000 0.40320  0.80450  0.50990  Biso   1.000  C
  C195     1.0000 0.55740  0.11870  0.47580  Biso   1.000  C
  C196     1.0000 0.44260  0.88130  0.52420  Biso   1.000  C
  C197     1.0000 0.19850  0.36630  0.53270  Biso   1.000  C
  C198     1.0000 0.80150  0.63370  0.46730  Biso   1.000  C
  C199     1.0000 0.15340  0.29020  0.51000  Biso   1.000  C
  C200     1.0000 0.84660  0.70980  0.49000  Biso   1.000  C
  C201     1.0000 0.46480  0.48960  0.47240  Biso   1.000  C
  C202     1.0000 0.53520  0.51040  0.52760  Biso   1.000  C
  C203     1.0000 0.94140  0.98960  0.51300  Biso   1.000  C
  C204     1.0000 0.05860  0.01040  0.48700  Biso   1.000  C
  N1       1.0000 0.73800  0.49960  0.91660  Biso   1.000  N
  N2       1.0000 0.26200  0.50040  0.08340  Biso   1.000  N
  N3       1.0000 0.66120  0.30440  0.90600  Biso   1.000  N
  N4       1.0000 0.33880  0.69560  0.09400  Biso   1.000  N
  N5       1.0000 0.22660  0.25550  0.92990  Biso   1.000  N
  N6       1.0000 0.77340  0.74450  0.07010  Biso   1.000  N
  N7       1.0000 0.61410  0.09660  0.84990  Biso   1.000  N
  N8       1.0000 0.38590  0.90340  0.15010  Biso   1.000  N
  N9       1.0000 0.86980  0.02480  0.04650  Biso   1.000  N
  N10      1.0000 0.13020  0.97520  0.95350  Biso   1.000  N
  N11      1.0000 0.29930  0.25760  0.06680  Biso   1.000  N
  N12      1.0000 0.70070  0.74240  0.93320  Biso   1.000  N
  N13      1.0000 0.81250  0.19900  0.09130  Biso   1.000  N
  N14      1.0000 0.18750  0.80100  0.90870  Biso   1.000  N
  N15      1.0000 0.78150  0.36910  0.14180  Biso   1.000  N
  N16      1.0000 0.21850  0.63090  0.85820  Biso   1.000  N
  O1       1.0000 0.98430  0.40260  0.64770  Biso   1.000  O
  O2       1.0000 0.01570  0.59740  0.35230  Biso   1.000  O
  O3       1.0000 0.91600  0.47840  0.70090  Biso   1.000  O
  O4       1.0000 0.08400  0.52160  0.29910  Biso   1.000  O
  O5       1.0000 0.44980  0.34350  0.58080  Biso   1.000  O
  O6       1.0000 0.55020  0.65650  0.41920  Biso   1.000  O
  O7       1.0000 0.66260  0.33960  0.57890  Biso   1.000  O
  O8       1.0000 0.33740  0.66040  0.42110  Biso   1.000  O
  O9       1.0000 0.92370  0.24980  0.59600  Biso   1.000  O
  O10      1.0000 0.07630  0.75020  0.40400  Biso   1.000  O
  O11      1.0000 0.82900  0.14480  0.58680  Biso   1.000  O
  O12      1.0000 0.17100  0.85520  0.41320  Biso   1.000  O
  O13      1.0000 0.12000  0.16560  0.56600  Biso   1.000  O
  O14      1.0000 0.88000  0.83440  0.43400  Biso   1.000  O
  O15      1.0000 0.31410  0.15810  0.54020  Biso   1.000  O
  O16      1.0000 0.68590  0.84190  0.45980  Biso   1.000  O
  O17      1.0000 0.16180  0.03770  0.38030  Biso   1.000  O
  O18      1.0000 0.83820  0.96230  0.61970  Biso   1.000  O
  O19      1.0000 0.30830  0.98150  0.35160  Biso   1.000  O
  O20      1.0000 0.69170  0.01850  0.64840  Biso   1.000  O
  O21      1.0000 0.36450  0.27590  0.40630  Biso   1.000  O
  O22      1.0000 0.63550  0.72410  0.59370  Biso   1.000  O
  O23      1.0000 0.33300  0.16800  0.37540  Biso   1.000  O
  O24      1.0000 0.66700  0.83200  0.62460  Biso   1.000  O
  O25      1.0000 0.00910  0.15550  0.41720  Biso   1.000  O
  O26      1.0000 0.99090  0.84450  0.58280  Biso   1.000  O
  O27      1.0000 0.79950  0.16510  0.41730  Biso   1.000  O
  O28      1.0000 0.20050  0.83490  0.58270  Biso   1.000  O
  O29      1.0000 0.69680  0.34710  0.46690  Biso   1.000  O
  O30      1.0000 0.30320  0.65290  0.53310  Biso   1.000  O
  O31      1.0000 0.91680  0.35090  0.47530  Biso   1.000  O
  O32      1.0000 0.08320  0.64910  0.52470  Biso   1.000  O
  O33      1.0000 0.72530  0.22310  0.50710  Biso   1.000  O
  O34      1.0000 0.27470  0.77690  0.49290  Biso   1.000  O
  O35      1.0000 0.50030  0.22280  0.48470  Biso   1.000  O
  O36      1.0000 0.49970  0.77720  0.51530  Biso   1.000  O
  O37      1.0000 0.65150  0.09050  0.48410  Biso   1.000  O
  O38      1.0000 0.34850  0.90950  0.51590  Biso   1.000  O
  O39      1.0000 0.43330  0.08920  0.45630  Biso   1.000  O
  O40      1.0000 0.56670  0.91080  0.54370  Biso   1.000  O
  O41      1.0000 0.13730  0.39060  0.56570  Biso   1.000  O
  O42      1.0000 0.86270  0.60940  0.43430  Biso   1.000  O
  O43      1.0000 0.03840  0.26030  0.51410  Biso   1.000  O
  O44      1.0000 0.96160  0.73970  0.48590  Biso   1.000  O
  O45      1.0000 0.28780  0.39650  0.51550  Biso   1.000  O
  O46      1.0000 0.71220  0.60350  0.48450  Biso   1.000  O
  O47      1.0000 0.23830  0.26290  0.48930  Biso   1.000  O
  O48      1.0000 0.76170  0.73710  0.51070  Biso   1.000  O
  O49      1.0000 0.45340  0.43140  0.44610  Biso   1.000  O
  O50      1.0000 0.54660  0.56860  0.55390  Biso   1.000  O
  O51      1.0000 0.42230  0.53280  0.45440  Biso   1.000  O
  O52      1.0000 0.57770  0.46720  0.54560  Biso   1.000  O
  O53      1.0000 0.86640  0.02810  0.52280  Biso   1.000  O
  O54      1.0000 0.13360  0.97190  0.47720  Biso   1.000  O
  O55      1.0000 0.93600  0.93600  0.52450  Biso   1.000  O
  O56      1.0000 0.06400  0.06400  0.47550  Biso   1.000  O
  O57      1.0000 0.80030  0.03130  0.41580  Biso   1.000  O
  O58      1.0000 0.19970  0.96870  0.58420  Biso   1.000  O
  H129     1.0000 0.77620  0.99650  0.42460  Biso   1.000  H
  H130     1.0000 0.22380  0.00350  0.57540  Biso   1.000  H
  H131     1.0000 0.86380  0.02690  0.40000  Biso   1.000  H
  H132     1.0000 0.13620  0.97310  0.60000  Biso   1.000  H
  O59      1.0000 0.88800  0.45930  0.56490  Biso   1.000  O
  O60      1.0000 0.11200  0.54070  0.43510  Biso   1.000  O
  H133     1.0000 0.96970  0.48260  0.56920  Biso   1.000  H
  H134     1.0000 0.03030  0.51740  0.43080  Biso   1.000  H
  H135     1.0000 0.85410  0.47480  0.58970  Biso   1.000  H
  H136     1.0000 0.14590  0.52520  0.41030  Biso   1.000  H
  O61      1.0000 0.45410  0.04640  0.54970  Biso   1.000  O
  O62      1.0000 0.54590  0.95360  0.45030  Biso   1.000  O
  H137     1.0000 0.43910  0.06790  0.57740  Biso   1.000  H
  H138     1.0000 0.56090  0.93210  0.42260  Biso   1.000  H
  H139     1.0000 0.39620  0.00860  0.53800  Biso   1.000  H
  H140     1.0000 0.60380  0.99140  0.46200  Biso   1.000  H
  O63      1.0000 0.27200  0.45140  0.26320  Biso   1.000  O
  O64      1.0000 0.72800  0.54860  0.73680  Biso   1.000  O
  H141     1.0000 0.24020  0.43130  0.23160  Biso   1.000  H
  H142     1.0000 0.75980  0.56870  0.76840  Biso   1.000  H
  H143     1.0000 0.21600  0.47290  0.27430  Biso   1.000  H
  H144     1.0000 0.78400  0.52710  0.72570  Biso   1.000  H
  O65      1.0000 0.78700  0.53100  0.63310  Biso   1.000  O
  O66      1.0000 0.21300  0.46900  0.36690  Biso   1.000  O
  H145     1.0000 0.80690  0.54030  0.66530  Biso   1.000  H
  H146     1.0000 0.19310  0.45970  0.33470  Biso   1.000  H
  H147     1.0000 0.81760  0.56660  0.62550  Biso   1.000  H
  H148     1.0000 0.18240  0.43340  0.37450  Biso   1.000  H
  O67      1.0000 0.50000  0.49350  0.35280  Biso   1.000  O
  O68      1.0000 0.50000  0.50650  0.64720  Biso   1.000  O
  H149     1.0000 0.51860  0.53090  0.34720  Biso   1.000  H
  H150     1.0000 0.48140  0.46910  0.65280  Biso   1.000  H
  H151     1.0000 0.50230  0.46430  0.32620  Biso   1.000  H
  H152     1.0000 0.49770  0.53570  0.67380  Biso   1.000  H
  O69      1.0000 0.84400  0.49570  0.48010  Biso   1.000  O
  O70      1.0000 0.15600  0.50430  0.51990  Biso   1.000  O
  H153     1.0000 0.77950  0.49480  0.45620  Biso   1.000  H
  H154     1.0000 0.22050  0.50520  0.54380  Biso   1.000  H
  H155     1.0000 0.84690  0.52560  0.50710  Biso   1.000  H
  H156     1.0000 0.15310  0.47440  0.49290  Biso   1.000  H
  O71      1.0000 0.57850  0.03950  0.34900  Biso   1.000  O
  O72      1.0000 0.42150  0.96050  0.65100  Biso   1.000  O
  H157     1.0000 0.53030  0.01680  0.36380  Biso   1.000  H
  H158     1.0000 0.46970  0.98320  0.63620  Biso   1.000  H
  H159     1.0000 0.62670  0.01990  0.33130  Biso   1.000  H
  H160     1.0000 0.37330  0.98010  0.66870  Biso   1.000  H
