data_image0
_cell_length_a       10.11
_cell_length_b       11.36
_cell_length_c       14.5
_cell_angle_alpha    90
_cell_angle_beta     90
_cell_angle_gamma    90

_symmetry_space_group_name_H-M    "P 1"
_symmetry_int_tables_number       1

loop_
  _symmetry_equiv_pos_as_xyz
  'x, y, z'

loop_
  _atom_site_label
  _atom_site_occupancy
  _atom_site_fract_x
  _atom_site_fract_y
  _atom_site_fract_z
  _atom_site_thermal_displace_type
  _atom_site_B_iso_or_equiv
  _atom_site_type_symbol
  Cu1      1.0000 0.16000  0.67800  0.25600  Biso   1.000  Cu
  Cu2      1.0000 0.84000  0.82200  0.75600  Biso   1.000  Cu
  Cu3      1.0000 0.66000  0.32200  0.24400  Biso   1.000  Cu
  Cu4      1.0000 0.34000  0.17800  0.74400  Biso   1.000  Cu
  Cu5      1.0000 0.84000  0.32200  0.74400  Biso   1.000  Cu
  Cu6      1.0000 0.16000  0.17800  0.24400  Biso   1.000  Cu
  Cu7      1.0000 0.34000  0.67800  0.75600  Biso   1.000  Cu
  Cu8      1.0000 0.66000  0.82200  0.25600  Biso   1.000  Cu
  Cu9      1.0000 0.24200  0.67300  0.98500  Biso   1.000  Cu
  Cu10     1.0000 0.75800  0.82700  0.48500  Biso   1.000  Cu
  Cu11     1.0000 0.74200  0.32700  0.51500  Biso   1.000  Cu
  Cu12     1.0000 0.25800  0.17300  0.01500  Biso   1.000  Cu
  Cu13     1.0000 0.75800  0.32700  0.01500  Biso   1.000  Cu
  Cu14     1.0000 0.24200  0.17300  0.51500  Biso   1.000  Cu
  Cu15     1.0000 0.25800  0.67300  0.48500  Biso   1.000  Cu
  Cu16     1.0000 0.74200  0.82700  0.98500  Biso   1.000  Cu
  B1       1.0000 0.18500  0.59100  0.12100  Biso   1.000  B
  B2       1.0000 0.81500  0.90900  0.62100  Biso   1.000  B
  B3       1.0000 0.68500  0.40900  0.37900  Biso   1.000  B
  B4       1.0000 0.31500  0.09100  0.87900  Biso   1.000  B
  B5       1.0000 0.81500  0.40900  0.87900  Biso   1.000  B
  B6       1.0000 0.18500  0.09100  0.37900  Biso   1.000  B
  B7       1.0000 0.31500  0.59100  0.62100  Biso   1.000  B
  B8       1.0000 0.68500  0.90900  0.12100  Biso   1.000  B
  B9       1.0000 0.25400  0.49900  0.04300  Biso   1.000  B
  B10      1.0000 0.74600  0.00100  0.54300  Biso   1.000  B
  B11      1.0000 0.75400  0.50100  0.45700  Biso   1.000  B
  B12      1.0000 0.24600  0.99900  0.95700  Biso   1.000  B
  B13      1.0000 0.74600  0.50100  0.95700  Biso   1.000  B
  B14      1.0000 0.25400  0.99900  0.45700  Biso   1.000  B
  B15      1.0000 0.24600  0.49900  0.54300  Biso   1.000  B
  B16      1.0000 0.75400  0.00100  0.04300  Biso   1.000  B
  B17      1.0000 0.09800  0.46200  0.10500  Biso   1.000  B
  B18      1.0000 0.90200  0.03800  0.60500  Biso   1.000  B
  B19      1.0000 0.59800  0.53800  0.39500  Biso   1.000  B
  B20      1.0000 0.40200  0.96200  0.89500  Biso   1.000  B
  B21      1.0000 0.90200  0.53800  0.89500  Biso   1.000  B
  B22      1.0000 0.09800  0.96200  0.39500  Biso   1.000  B
  B23      1.0000 0.40200  0.46200  0.60500  Biso   1.000  B
  B24      1.0000 0.59800  0.03800  0.10500  Biso   1.000  B
  B25      1.0000 0.18900  0.49900  0.21300  Biso   1.000  B
  B26      1.0000 0.81100  0.00100  0.71300  Biso   1.000  B
  B27      1.0000 0.68900  0.50100  0.28700  Biso   1.000  B
  B28      1.0000 0.31100  0.99900  0.78700  Biso   1.000  B
  B29      1.0000 0.81100  0.50100  0.78700  Biso   1.000  B
  B30      1.0000 0.18900  0.99900  0.28700  Biso   1.000  B
  B31      1.0000 0.31100  0.49900  0.71300  Biso   1.000  B
  B32      1.0000 0.68900  0.00100  0.21300  Biso   1.000  B
  B33      1.0000 0.34000  0.53600  0.14700  Biso   1.000  B
  B34      1.0000 0.66000  0.96400  0.64700  Biso   1.000  B
  B35      1.0000 0.84000  0.46400  0.35300  Biso   1.000  B
  B36      1.0000 0.16000  0.03600  0.85300  Biso   1.000  B
  B37      1.0000 0.66000  0.46400  0.85300  Biso   1.000  B
  B38      1.0000 0.34000  0.03600  0.35300  Biso   1.000  B
  B39      1.0000 0.16000  0.53600  0.64700  Biso   1.000  B
  B40      1.0000 0.84000  0.96400  0.14700  Biso   1.000  B
  B41      1.0000 0.29500  0.27900  0.14200  Biso   1.000  B
  B42      1.0000 0.70500  0.22100  0.64200  Biso   1.000  B
  B43      1.0000 0.79500  0.72100  0.35800  Biso   1.000  B
  B44      1.0000 0.20500  0.77900  0.85800  Biso   1.000  B
  B45      1.0000 0.70500  0.72100  0.85800  Biso   1.000  B
  B46      1.0000 0.29500  0.77900  0.35800  Biso   1.000  B
  B47      1.0000 0.20500  0.27900  0.64200  Biso   1.000  B
  B48      1.0000 0.79500  0.22100  0.14200  Biso   1.000  B
  B49      1.0000 0.15500  0.34800  0.18200  Biso   1.000  B
  B50      1.0000 0.84500  0.15200  0.68200  Biso   1.000  B
  B51      1.0000 0.65500  0.65200  0.31800  Biso   1.000  B
  B52      1.0000 0.34500  0.84800  0.81800  Biso   1.000  B
  B53      1.0000 0.84500  0.65200  0.81800  Biso   1.000  B
  B54      1.0000 0.15500  0.84800  0.31800  Biso   1.000  B
  B55      1.0000 0.34500  0.34800  0.68200  Biso   1.000  B
  B56      1.0000 0.65500  0.15200  0.18200  Biso   1.000  B
  B57      1.0000 0.32700  0.39700  0.21200  Biso   1.000  B
  B58      1.0000 0.67300  0.10300  0.71200  Biso   1.000  B
  B59      1.0000 0.82700  0.60300  0.28800  Biso   1.000  B
  B60      1.0000 0.17300  0.89700  0.78800  Biso   1.000  B
  B61      1.0000 0.67300  0.60300  0.78800  Biso   1.000  B
  B62      1.0000 0.32700  0.89700  0.28800  Biso   1.000  B
  B63      1.0000 0.17300  0.39700  0.71200  Biso   1.000  B
  B64      1.0000 0.82700  0.10300  0.21200  Biso   1.000  B
  B65      1.0000 0.37100  0.39500  0.09000  Biso   1.000  B
  B66      1.0000 0.62900  0.10500  0.59000  Biso   1.000  B
  B67      1.0000 0.87100  0.60500  0.41000  Biso   1.000  B
  B68      1.0000 0.12900  0.89500  0.91000  Biso   1.000  B
  B69      1.0000 0.62900  0.60500  0.91000  Biso   1.000  B
  B70      1.0000 0.37100  0.89500  0.41000  Biso   1.000  B
  B71      1.0000 0.12900  0.39500  0.59000  Biso   1.000  B
  B72      1.0000 0.87100  0.10500  0.09000  Biso   1.000  B
  B73      1.0000 0.20000  0.34900  0.05900  Biso   1.000  B
  B74      1.0000 0.80000  0.15100  0.55900  Biso   1.000  B
  B75      1.0000 0.70000  0.65100  0.44100  Biso   1.000  B
  B76      1.0000 0.30000  0.84900  0.94100  Biso   1.000  B
  B77      1.0000 0.80000  0.65100  0.94100  Biso   1.000  B
  B78      1.0000 0.20000  0.84900  0.44100  Biso   1.000  B
  B79      1.0000 0.30000  0.34900  0.55900  Biso   1.000  B
  B80      1.0000 0.70000  0.15100  0.05900  Biso   1.000  B
