data_image0
_cell_length_a       5.038
_cell_length_b       5.97
_cell_length_c       15.774
_cell_angle_alpha    80.77
_cell_angle_beta     86.42
_cell_angle_gamma    84.38

_symmetry_space_group_name_H-M    "P 1"
_symmetry_int_tables_number       1

loop_
  _symmetry_equiv_pos_as_xyz
  'x, y, z'

loop_
  _atom_site_label
  _atom_site_occupancy
  _atom_site_fract_x
  _atom_site_fract_y
  _atom_site_fract_z
  _atom_site_thermal_displace_type
  _atom_site_B_iso_or_equiv
  _atom_site_type_symbol
  Hg1      1.0000 0.46280  0.30360  0.03850  Biso   1.000  Hg
  Hg2      1.0000 0.53720  0.69640  0.96150  Biso   1.000  Hg
  C1       1.0000 0.30430  0.62340  0.25740  Biso   1.000  C
  C2       1.0000 0.69570  0.37660  0.74260  Biso   1.000  C
  C3       1.0000 0.50880  0.46180  0.28260  Biso   1.000  C
  C4       1.0000 0.49120  0.53820  0.71740  Biso   1.000  C
  F1       1.0000 0.56580  0.27850  0.24130  Biso   1.000  F
  F2       1.0000 0.43420  0.72150  0.75870  Biso   1.000  F
  C5       1.0000 0.65480  0.47250  0.35360  Biso   1.000  C
  C6       1.0000 0.34520  0.52750  0.64640  Biso   1.000  C
  F3       1.0000 0.85060  0.31020  0.37760  Biso   1.000  F
  F4       1.0000 0.14940  0.68980  0.62240  Biso   1.000  F
  C7       1.0000 0.60440  0.64810  0.39900  Biso   1.000  C
  C8       1.0000 0.39560  0.35190  0.60100  Biso   1.000  C
  F5       1.0000 0.75640  0.66430  0.46390  Biso   1.000  F
  F6       1.0000 0.24360  0.33570  0.53610  Biso   1.000  F
  C9       1.0000 0.41130  0.81690  0.37230  Biso   1.000  C
  C10      1.0000 0.58870  0.18310  0.62770  Biso   1.000  C
  F7       1.0000 0.35390  0.99220  0.41310  Biso   1.000  F
  F8       1.0000 0.64610  0.00780  0.58690  Biso   1.000  F
  C11      1.0000 0.26370  0.80230  0.30320  Biso   1.000  C
  C12      1.0000 0.73630  0.19770  0.69680  Biso   1.000  C
  F9       1.0000 0.05820  0.96720  0.28240  Biso   1.000  F
  F10      1.0000 0.94180  0.03280  0.71760  Biso   1.000  F
  O1       1.0000 0.17110  0.59060  0.18850  Biso   1.000  O
  O2       1.0000 0.82890  0.40940  0.81150  Biso   1.000  O
  C13      1.0000 0.98950  0.76000  0.14620  Biso   1.000  C
  C14      1.0000 0.01050  0.24000  0.85380  Biso   1.000  C
  C15      1.0000 0.10880  0.97090  0.10220  Biso   1.000  C
  C16      1.0000 0.89120  0.02910  0.89780  Biso   1.000  C
  O3       1.0000 0.36470  0.97160  0.09540  Biso   1.000  O
  O4       1.0000 0.63530  0.02840  0.90460  Biso   1.000  O
  O5       1.0000 0.95360  0.14440  0.07660  Biso   1.000  O
  O6       1.0000 0.04640  0.85560  0.92340  Biso   1.000  O
