data_image0
_cell_length_a       9.2054
_cell_length_b       15.8179
_cell_length_c       17.6221
_cell_angle_alpha    116.6
_cell_angle_beta     90
_cell_angle_gamma    90

_symmetry_space_group_name_H-M    "P 1"
_symmetry_int_tables_number       1

loop_
  _symmetry_equiv_pos_as_xyz
  'x, y, z'

loop_
  _atom_site_label
  _atom_site_occupancy
  _atom_site_fract_x
  _atom_site_fract_y
  _atom_site_fract_z
  _atom_site_thermal_displace_type
  _atom_site_B_iso_or_equiv
  _atom_site_type_symbol
  Tb1      1.0000 0.59195  0.50000  0.75000  Biso   1.000  Tb
  Tb2      1.0000 0.09195  1.00000  0.75000  Biso   1.000  Tb
  Tb3      1.0000 0.40805  0.50000  0.25000  Biso   1.000  Tb
  Tb4      1.0000 0.90805  0.00000  0.25000  Biso   1.000  Tb
  Co1      1.0000 0.25000  0.25000  0.50000  Biso   1.000  Co
  Co2      1.0000 0.25000  0.75000  0.00000  Biso   1.000  Co
  Co3      1.0000 0.75000  0.75000  0.50000  Biso   1.000  Co
  Co4      1.0000 0.75000  0.25000  0.00000  Biso   1.000  Co
  O1       1.0000 0.52730  0.39032  0.79490  Biso   1.000  O
  O2       1.0000 0.52730  0.60968  0.70510  Biso   1.000  O
  O3       1.0000 0.02730  0.89032  0.79490  Biso   1.000  O
  O4       1.0000 0.02730  0.10968  0.70510  Biso   1.000  O
  O5       1.0000 0.47270  0.60968  0.20510  Biso   1.000  O
  O6       1.0000 0.47270  0.39032  0.29490  Biso   1.000  O
  O7       1.0000 0.97270  0.10968  0.20510  Biso   1.000  O
  O8       1.0000 0.97270  0.89032  0.29490  Biso   1.000  O
  O9       1.0000 0.67041  0.62309  0.88439  Biso   1.000  O
  O10      1.0000 0.67041  0.37691  0.61561  Biso   1.000  O
  O11      1.0000 0.17041  0.12309  0.88439  Biso   1.000  O
  O12      1.0000 0.17041  0.87691  0.61561  Biso   1.000  O
  O13      1.0000 0.32959  0.37691  0.11561  Biso   1.000  O
  O14      1.0000 0.32959  0.62309  0.38439  Biso   1.000  O
  O15      1.0000 0.82959  0.87691  0.11561  Biso   1.000  O
  O16      1.0000 0.82959  0.12309  0.38439  Biso   1.000  O
  O17      1.0000 0.80862  0.43936  0.78887  Biso   1.000  O
  O18      1.0000 0.80862  0.56064  0.71113  Biso   1.000  O
  O19      1.0000 0.30862  0.93936  0.78887  Biso   1.000  O
  O20      1.0000 0.30862  0.06064  0.71113  Biso   1.000  O
  O21      1.0000 0.19138  0.56064  0.21113  Biso   1.000  O
  O22      1.0000 0.19138  0.43936  0.28887  Biso   1.000  O
  O23      1.0000 0.69138  0.06064  0.21113  Biso   1.000  O
  O24      1.0000 0.69138  0.93936  0.28887  Biso   1.000  O
  N1       1.0000 0.37525  0.41336  0.65693  Biso   1.000  N
  N2       1.0000 0.37525  0.58664  0.84307  Biso   1.000  N
  N3       1.0000 0.87525  0.91336  0.65693  Biso   1.000  N
  N4       1.0000 0.87525  0.08664  0.84307  Biso   1.000  N
  N5       1.0000 0.62475  0.58664  0.34307  Biso   1.000  N
  N6       1.0000 0.62475  0.41336  0.15693  Biso   1.000  N
  N7       1.0000 0.12475  0.08664  0.34307  Biso   1.000  N
  N8       1.0000 0.12475  0.91336  0.15693  Biso   1.000  N
  N9       1.0000 0.20020  0.26958  0.79884  Biso   1.000  N
  N10      1.0000 0.20020  0.73042  0.70116  Biso   1.000  N
  N11      1.0000 0.70020  0.76958  0.79884  Biso   1.000  N
  N12      1.0000 0.70020  0.23042  0.70116  Biso   1.000  N
  N13      1.0000 0.79980  0.73042  0.20116  Biso   1.000  N
  N14      1.0000 0.79980  0.26958  0.29884  Biso   1.000  N
  N15      1.0000 0.29980  0.23042  0.20116  Biso   1.000  N
  N16      1.0000 0.29980  0.76958  0.29884  Biso   1.000  N
  N17      1.0000 0.94130  0.30062  0.56697  Biso   1.000  N
  N18      1.0000 0.94130  0.69938  0.93303  Biso   1.000  N
  N19      1.0000 0.44130  0.80062  0.56697  Biso   1.000  N
  N20      1.0000 0.44130  0.19938  0.93303  Biso   1.000  N
  N21      1.0000 0.05870  0.69938  0.43303  Biso   1.000  N
  N22      1.0000 0.05870  0.30062  0.06697  Biso   1.000  N
  N23      1.0000 0.55870  0.19938  0.43303  Biso   1.000  N
  N24      1.0000 0.55870  0.80062  0.06697  Biso   1.000  N
  N25      1.0000 0.28320  0.11715  0.58177  Biso   1.000  N
  N26      1.0000 0.28320  0.88285  0.91823  Biso   1.000  N
  N27      1.0000 0.78320  0.61715  0.58177  Biso   1.000  N
  N28      1.0000 0.78320  0.38285  0.91823  Biso   1.000  N
  N29      1.0000 0.71680  0.88285  0.41823  Biso   1.000  N
  N30      1.0000 0.71680  0.11715  0.08177  Biso   1.000  N
  N31      1.0000 0.21680  0.38285  0.41823  Biso   1.000  N
  N32      1.0000 0.21680  0.61715  0.08177  Biso   1.000  N
  C1       1.0000 0.32490  0.35149  0.59883  Biso   1.000  C
  C2       1.0000 0.32490  0.64851  0.90117  Biso   1.000  C
  C3       1.0000 0.82490  0.85149  0.59883  Biso   1.000  C
  C4       1.0000 0.82490  0.14851  0.90117  Biso   1.000  C
  C5       1.0000 0.67510  0.64851  0.40117  Biso   1.000  C
  C6       1.0000 0.67510  0.35149  0.09883  Biso   1.000  C
  C7       1.0000 0.17510  0.14851  0.40117  Biso   1.000  C
  C8       1.0000 0.17510  0.85149  0.09883  Biso   1.000  C
  C9       1.0000 0.32440  0.29089  0.77133  Biso   1.000  C
  C10      1.0000 0.32440  0.70911  0.72867  Biso   1.000  C
  C11      1.0000 0.82440  0.79089  0.77133  Biso   1.000  C
  C12      1.0000 0.82440  0.20911  0.72867  Biso   1.000  C
  C13      1.0000 0.67560  0.70911  0.22867  Biso   1.000  C
  C14      1.0000 0.67560  0.29089  0.27133  Biso   1.000  C
  C15      1.0000 0.17560  0.20911  0.22867  Biso   1.000  C
  C16      1.0000 0.17560  0.79089  0.27133  Biso   1.000  C
  C17      1.0000 0.40610  0.37039  0.82319  Biso   1.000  C
  C18      1.0000 0.40610  0.62961  0.67681  Biso   1.000  C
  C19      1.0000 0.90610  0.87039  0.82319  Biso   1.000  C
  C20      1.0000 0.90610  0.12961  0.67681  Biso   1.000  C
  C21      1.0000 0.59390  0.62961  0.17681  Biso   1.000  C
  C22      1.0000 0.59390  0.37039  0.32319  Biso   1.000  C
  C23      1.0000 0.09390  0.12961  0.17681  Biso   1.000  C
  C24      1.0000 0.09390  0.87039  0.32319  Biso   1.000  C
  C25      1.0000 0.35150  0.42597  0.90522  Biso   1.000  C
  C26      1.0000 0.35150  0.57403  0.59478  Biso   1.000  C
  C27      1.0000 0.85150  0.92597  0.90522  Biso   1.000  C
  C28      1.0000 0.85150  0.07403  0.59478  Biso   1.000  C
  C29      1.0000 0.64850  0.57403  0.09478  Biso   1.000  C
  C30      1.0000 0.64850  0.42597  0.40522  Biso   1.000  C
  C31      1.0000 0.14850  0.07403  0.09478  Biso   1.000  C
  C32      1.0000 0.14850  0.92597  0.40522  Biso   1.000  C
  C33      1.0000 0.22280  0.40212  0.93137  Biso   1.000  C
  C34      1.0000 0.22280  0.59788  0.56863  Biso   1.000  C
  C35      1.0000 0.72280  0.90212  0.93137  Biso   1.000  C
  C36      1.0000 0.72280  0.09788  0.56863  Biso   1.000  C
  C37      1.0000 0.77720  0.59788  0.06863  Biso   1.000  C
  C38      1.0000 0.77720  0.40212  0.43137  Biso   1.000  C
  C39      1.0000 0.27720  0.09788  0.06863  Biso   1.000  C
  C40      1.0000 0.27720  0.90212  0.43137  Biso   1.000  C
  C41      1.0000 0.14730  0.32245  0.87712  Biso   1.000  C
  C42      1.0000 0.14730  0.67755  0.62288  Biso   1.000  C
  C43      1.0000 0.64730  0.82245  0.87712  Biso   1.000  C
  C44      1.0000 0.64730  0.17755  0.62288  Biso   1.000  C
  C45      1.0000 0.85270  0.67755  0.12288  Biso   1.000  C
  C46      1.0000 0.85270  0.32245  0.37712  Biso   1.000  C
  C47      1.0000 0.35270  0.17755  0.12288  Biso   1.000  C
  C48      1.0000 0.35270  0.82245  0.37712  Biso   1.000  C
  C49      1.0000 0.05840  0.28170  0.54320  Biso   1.000  C
  C50      1.0000 0.05840  0.71830  0.95680  Biso   1.000  C
  C51      1.0000 0.55840  0.78170  0.54320  Biso   1.000  C
  C52      1.0000 0.55840  0.21830  0.95680  Biso   1.000  C
  C53      1.0000 0.94160  0.71830  0.45680  Biso   1.000  C
  C54      1.0000 0.94160  0.28170  0.04320  Biso   1.000  C
  C55      1.0000 0.44160  0.21830  0.45680  Biso   1.000  C
  C56      1.0000 0.44160  0.78170  0.04320  Biso   1.000  C
  C57      1.0000 0.26840  0.16660  0.55056  Biso   1.000  C
  C58      1.0000 0.26840  0.83340  0.94944  Biso   1.000  C
  C59      1.0000 0.76840  0.66660  0.55056  Biso   1.000  C
  C60      1.0000 0.76840  0.33340  0.94944  Biso   1.000  C
  C61      1.0000 0.73160  0.83340  0.44944  Biso   1.000  C
  C62      1.0000 0.73160  0.16660  0.05056  Biso   1.000  C
  C63      1.0000 0.23160  0.33340  0.44944  Biso   1.000  C
  C64      1.0000 0.23160  0.66660  0.05056  Biso   1.000  C
  H1       1.0000 0.06000  0.29920  0.88920  Biso   1.000  H
  H2       1.0000 0.06000  0.70080  0.61080  Biso   1.000  H
  H3       1.0000 0.56000  0.79920  0.88920  Biso   1.000  H
  H4       1.0000 0.56000  0.20080  0.61080  Biso   1.000  H
  H5       1.0000 0.94000  0.70080  0.11080  Biso   1.000  H
  H6       1.0000 0.94000  0.29920  0.38920  Biso   1.000  H
  H7       1.0000 0.44000  0.20080  0.11080  Biso   1.000  H
  H8       1.0000 0.44000  0.79920  0.38920  Biso   1.000  H
  H9       1.0000 0.18800  0.43600  0.98610  Biso   1.000  H
  H10      1.0000 0.18800  0.56400  0.51390  Biso   1.000  H
  H11      1.0000 0.68800  0.93600  0.98610  Biso   1.000  H
  H12      1.0000 0.68800  0.06400  0.51390  Biso   1.000  H
  H13      1.0000 0.81200  0.56400  0.01390  Biso   1.000  H
  H14      1.0000 0.81200  0.43600  0.48610  Biso   1.000  H
  H15      1.0000 0.31200  0.06400  0.01390  Biso   1.000  H
  H16      1.0000 0.31200  0.93600  0.48610  Biso   1.000  H
  H17      1.0000 0.40100  0.48000  0.94020  Biso   1.000  H
  H18      1.0000 0.40100  0.52000  0.55980  Biso   1.000  H
  H19      1.0000 0.90100  0.98000  0.94020  Biso   1.000  H
  H20      1.0000 0.90100  0.02000  0.55980  Biso   1.000  H
  H21      1.0000 0.59900  0.52000  0.05980  Biso   1.000  H
  H22      1.0000 0.59900  0.48000  0.44020  Biso   1.000  H
  H23      1.0000 0.09900  0.02000  0.05980  Biso   1.000  H
  H24      1.0000 0.09900  0.98000  0.44020  Biso   1.000  H
  H25      1.0000 0.89800  0.45000  0.78300  Biso   1.000  H
  H26      1.0000 0.89800  0.55000  0.71700  Biso   1.000  H
  H27      1.0000 0.39800  0.95000  0.78300  Biso   1.000  H
  H28      1.0000 0.39800  0.05000  0.71700  Biso   1.000  H
  H29      1.0000 0.10200  0.55000  0.21700  Biso   1.000  H
  H30      1.0000 0.10200  0.45000  0.28300  Biso   1.000  H
  H31      1.0000 0.60200  0.05000  0.21700  Biso   1.000  H
  H32      1.0000 0.60200  0.95000  0.28300  Biso   1.000  H
  H33      1.0000 0.80500  0.43000  0.83250  Biso   1.000  H
  H34      1.0000 0.80500  0.57000  0.66750  Biso   1.000  H
  H35      1.0000 0.30500  0.93000  0.83250  Biso   1.000  H
  H36      1.0000 0.30500  0.07000  0.66750  Biso   1.000  H
  H37      1.0000 0.19500  0.57000  0.16750  Biso   1.000  H
  H38      1.0000 0.19500  0.43000  0.33250  Biso   1.000  H
  H39      1.0000 0.69500  0.07000  0.16750  Biso   1.000  H
  H40      1.0000 0.69500  0.93000  0.33250  Biso   1.000  H
  H41      1.0000 0.35200  0.25040  0.71720  Biso   1.000  H
  H42      1.0000 0.35200  0.74960  0.78280  Biso   1.000  H
  H43      1.0000 0.85200  0.75040  0.71720  Biso   1.000  H
  H44      1.0000 0.85200  0.24960  0.78280  Biso   1.000  H
  H45      1.0000 0.64800  0.74960  0.28280  Biso   1.000  H
  H46      1.0000 0.64800  0.25040  0.21720  Biso   1.000  H
  H47      1.0000 0.14800  0.24960  0.28280  Biso   1.000  H
  H48      1.0000 0.14800  0.75040  0.21720  Biso   1.000  H
  H49      1.0000 0.75500  0.64610  0.89690  Biso   1.000  H
  H50      1.0000 0.75500  0.35390  0.60310  Biso   1.000  H
  H51      1.0000 0.25500  0.14610  0.89690  Biso   1.000  H
  H52      1.0000 0.25500  0.85390  0.60310  Biso   1.000  H
  H53      1.0000 0.24500  0.35390  0.10310  Biso   1.000  H
  H54      1.0000 0.24500  0.64610  0.39690  Biso   1.000  H
  H55      1.0000 0.74500  0.85390  0.10310  Biso   1.000  H
  H56      1.0000 0.74500  0.14610  0.39690  Biso   1.000  H
  H57      1.0000 0.61900  0.65700  0.92730  Biso   1.000  H
  H58      1.0000 0.61900  0.34300  0.57270  Biso   1.000  H
  H59      1.0000 0.11900  0.15700  0.92730  Biso   1.000  H
  H60      1.0000 0.11900  0.84300  0.57270  Biso   1.000  H
  H61      1.0000 0.38100  0.34300  0.07270  Biso   1.000  H
  H62      1.0000 0.38100  0.65700  0.42730  Biso   1.000  H
  H63      1.0000 0.88100  0.84300  0.07270  Biso   1.000  H
  H64      1.0000 0.88100  0.15700  0.42730  Biso   1.000  H
  H65      1.0000 0.59000  0.34460  0.76490  Biso   1.000  H
  H66      1.0000 0.59000  0.65540  0.73510  Biso   1.000  H
  H67      1.0000 0.09000  0.84460  0.76490  Biso   1.000  H
  H68      1.0000 0.09000  0.15540  0.73510  Biso   1.000  H
  H69      1.0000 0.41000  0.65540  0.23510  Biso   1.000  H
  H70      1.0000 0.41000  0.34460  0.26490  Biso   1.000  H
  H71      1.0000 0.91000  0.15540  0.23510  Biso   1.000  H
  H72      1.0000 0.91000  0.84460  0.26490  Biso   1.000  H
  O25      1.0000 0.07410  0.50000  0.75000  Biso   1.000  O
  O26      1.0000 0.57410  1.00000  0.75000  Biso   1.000  O
  O27      1.0000 0.92590  0.50000  0.25000  Biso   1.000  O
  O28      1.0000 0.42590  0.00000  0.25000  Biso   1.000  O
  H73      1.0000 0.13200  0.53760  0.78830  Biso   1.000  H
  H74      1.0000 0.13200  0.46240  0.71170  Biso   1.000  H
  H75      1.0000 0.63200  0.03760  0.78830  Biso   1.000  H
  H76      1.0000 0.63200  0.96240  0.71170  Biso   1.000  H
  H77      1.0000 0.86800  0.46240  0.21170  Biso   1.000  H
  H78      1.0000 0.86800  0.53760  0.28830  Biso   1.000  H
  H79      1.0000 0.36800  0.96240  0.21170  Biso   1.000  H
  H80      1.0000 0.36800  0.03760  0.28830  Biso   1.000  H
