data_image0
_cell_length_a       12.9814
_cell_length_b       14.381
_cell_length_c       33.6684
_cell_angle_alpha    90
_cell_angle_beta     90
_cell_angle_gamma    90

_symmetry_space_group_name_H-M    "P 1"
_symmetry_int_tables_number       1

loop_
  _symmetry_equiv_pos_as_xyz
  'x, y, z'

loop_
  _atom_site_label
  _atom_site_occupancy
  _atom_site_fract_x
  _atom_site_fract_y
  _atom_site_fract_z
  _atom_site_thermal_displace_type
  _atom_site_B_iso_or_equiv
  _atom_site_type_symbol
  I1       1.0000 0.64755  0.43294  0.51524  Biso   1.000  I
  I2       1.0000 0.85245  0.06706  0.01524  Biso   1.000  I
  I3       1.0000 0.64755  0.56706  0.98476  Biso   1.000  I
  I4       1.0000 0.85245  0.93294  0.48476  Biso   1.000  I
  I5       1.0000 0.35245  0.56706  0.48476  Biso   1.000  I
  I6       1.0000 0.14755  0.93294  0.98476  Biso   1.000  I
  I7       1.0000 0.35245  0.43294  0.01524  Biso   1.000  I
  I8       1.0000 0.14755  0.06706  0.51524  Biso   1.000  I
  Cu1      1.0000 0.00690  0.41578  0.23607  Biso   1.000  Cu
  Cu2      1.0000 0.49310  0.08422  0.73607  Biso   1.000  Cu
  Cu3      1.0000 0.00690  0.58422  0.26393  Biso   1.000  Cu
  Cu4      1.0000 0.49310  0.91578  0.76393  Biso   1.000  Cu
  Cu5      1.0000 0.99310  0.58422  0.76393  Biso   1.000  Cu
  Cu6      1.0000 0.50690  0.91578  0.26393  Biso   1.000  Cu
  Cu7      1.0000 0.99310  0.41578  0.73607  Biso   1.000  Cu
  Cu8      1.0000 0.50690  0.08422  0.23607  Biso   1.000  Cu
  Cu9      1.0000 0.48646  0.43748  0.46928  Biso   1.000  Cu
  Cu10     1.0000 0.01354  0.06252  0.96928  Biso   1.000  Cu
  Cu11     1.0000 0.48646  0.56252  0.03072  Biso   1.000  Cu
  Cu12     1.0000 0.01354  0.93748  0.53072  Biso   1.000  Cu
  Cu13     1.0000 0.51354  0.56252  0.53072  Biso   1.000  Cu
  Cu14     1.0000 0.98646  0.93748  0.03072  Biso   1.000  Cu
  Cu15     1.0000 0.51354  0.43748  0.96928  Biso   1.000  Cu
  Cu16     1.0000 0.98646  0.06252  0.46928  Biso   1.000  Cu
  P1       1.0000 0.50670  0.37370  0.40906  Biso   1.000  P
  P2       1.0000 0.99330  0.12630  0.90906  Biso   1.000  P
  P3       1.0000 0.50670  0.62630  0.09094  Biso   1.000  P
  P4       1.0000 0.99330  0.87370  0.59094  Biso   1.000  P
  P5       1.0000 0.49330  0.62630  0.59094  Biso   1.000  P
  P6       1.0000 0.00670  0.87370  0.09094  Biso   1.000  P
  P7       1.0000 0.49330  0.37370  0.90906  Biso   1.000  P
  P8       1.0000 0.00670  0.12630  0.40906  Biso   1.000  P
  O1       1.0000 0.88820  0.39850  0.27110  Biso   1.000  O
  O2       1.0000 0.61180  0.10150  0.77110  Biso   1.000  O
  O3       1.0000 0.88820  0.60150  0.22890  Biso   1.000  O
  O4       1.0000 0.61180  0.89850  0.72890  Biso   1.000  O
  O5       1.0000 0.11180  0.60150  0.72890  Biso   1.000  O
  O6       1.0000 0.38820  0.89850  0.22890  Biso   1.000  O
  O7       1.0000 0.11180  0.39850  0.77110  Biso   1.000  O
  O8       1.0000 0.38820  0.10150  0.27110  Biso   1.000  O
  O9       1.0000 0.10090  0.39300  0.28100  Biso   1.000  O
  O10      1.0000 0.39910  0.10700  0.78100  Biso   1.000  O
  O11      1.0000 0.10090  0.60700  0.21900  Biso   1.000  O
  O12      1.0000 0.39910  0.89300  0.71900  Biso   1.000  O
  O13      1.0000 0.89910  0.60700  0.71900  Biso   1.000  O
  O14      1.0000 0.60090  0.89300  0.21900  Biso   1.000  O
  O15      1.0000 0.89910  0.39300  0.78100  Biso   1.000  O
  O16      1.0000 0.60090  0.10700  0.28100  Biso   1.000  O
  O17      1.0000 0.12500  0.54630  0.29530  Biso   1.000  O
  O18      1.0000 0.37500  0.95370  0.79530  Biso   1.000  O
  O19      1.0000 0.12500  0.45370  0.20470  Biso   1.000  O
  O20      1.0000 0.37500  0.04630  0.70470  Biso   1.000  O
  O21      1.0000 0.87500  0.45370  0.70470  Biso   1.000  O
  O22      1.0000 0.62500  0.04630  0.20470  Biso   1.000  O
  O23      1.0000 0.87500  0.54630  0.79530  Biso   1.000  O
  O24      1.0000 0.62500  0.95370  0.29530  Biso   1.000  O
  O25      1.0000 0.91630  0.53080  0.30500  Biso   1.000  O
  O26      1.0000 0.58370  0.96920  0.80500  Biso   1.000  O
  O27      1.0000 0.91630  0.46920  0.19500  Biso   1.000  O
  O28      1.0000 0.58370  0.03080  0.69500  Biso   1.000  O
  O29      1.0000 0.08370  0.46920  0.69500  Biso   1.000  O
  O30      1.0000 0.41630  0.03080  0.19500  Biso   1.000  O
  O31      1.0000 0.08370  0.53080  0.80500  Biso   1.000  O
  O32      1.0000 0.41630  0.96920  0.30500  Biso   1.000  O
  O33      1.0000 0.00800  0.26800  0.21720  Biso   1.000  O
  O34      1.0000 0.49200  0.23200  0.71720  Biso   1.000  O
  O35      1.0000 0.00800  0.73200  0.28280  Biso   1.000  O
  O36      1.0000 0.49200  0.76800  0.78280  Biso   1.000  O
  O37      1.0000 0.99200  0.73200  0.78280  Biso   1.000  O
  O38      1.0000 0.50800  0.76800  0.28280  Biso   1.000  O
  O39      1.0000 0.99200  0.26800  0.71720  Biso   1.000  O
  O40      1.0000 0.50800  0.23200  0.21720  Biso   1.000  O
  N1       1.0000 0.39380  0.29800  0.47840  Biso   1.000  N
  N2       1.0000 0.10620  0.20200  0.97840  Biso   1.000  N
  N3       1.0000 0.39380  0.70200  0.02160  Biso   1.000  N
  N4       1.0000 0.10620  0.79800  0.52160  Biso   1.000  N
  N5       1.0000 0.60620  0.70200  0.52160  Biso   1.000  N
  N6       1.0000 0.89380  0.79800  0.02160  Biso   1.000  N
  N7       1.0000 0.60620  0.29800  0.97840  Biso   1.000  N
  N8       1.0000 0.89380  0.20200  0.47840  Biso   1.000  N
  C1       1.0000 0.39310  0.28340  0.52140  Biso   1.000  C
  C2       1.0000 0.10690  0.21660  0.02140  Biso   1.000  C
  C3       1.0000 0.39310  0.71660  0.97860  Biso   1.000  C
  C4       1.0000 0.10690  0.78340  0.47860  Biso   1.000  C
  C5       1.0000 0.60690  0.71660  0.47860  Biso   1.000  C
  C6       1.0000 0.89310  0.78340  0.97860  Biso   1.000  C
  C7       1.0000 0.60690  0.28340  0.02140  Biso   1.000  C
  C8       1.0000 0.89310  0.21660  0.52140  Biso   1.000  C
  H1       1.0000 0.46405  0.28217  0.53130  Biso   1.000  H
  H2       1.0000 0.03595  0.21783  0.03130  Biso   1.000  H
  H3       1.0000 0.46405  0.71783  0.96870  Biso   1.000  H
  H4       1.0000 0.03595  0.78217  0.46870  Biso   1.000  H
  H5       1.0000 0.53595  0.71783  0.46870  Biso   1.000  H
  H6       1.0000 0.96405  0.78217  0.96870  Biso   1.000  H
  H7       1.0000 0.53595  0.28217  0.03130  Biso   1.000  H
  H8       1.0000 0.96405  0.21783  0.53130  Biso   1.000  H
  H9       1.0000 0.35536  0.33424  0.53424  Biso   1.000  H
  H10      1.0000 0.14464  0.16576  0.03424  Biso   1.000  H
  H11      1.0000 0.35536  0.66576  0.96576  Biso   1.000  H
  H12      1.0000 0.14464  0.83424  0.46576  Biso   1.000  H
  H13      1.0000 0.64464  0.66576  0.46576  Biso   1.000  H
  H14      1.0000 0.85536  0.83424  0.96576  Biso   1.000  H
  H15      1.0000 0.64464  0.33424  0.03424  Biso   1.000  H
  H16      1.0000 0.85536  0.16576  0.53424  Biso   1.000  H
  H17      1.0000 0.35933  0.22416  0.52744  Biso   1.000  H
  H18      1.0000 0.14067  0.27584  0.02744  Biso   1.000  H
  H19      1.0000 0.35933  0.77584  0.97256  Biso   1.000  H
  H20      1.0000 0.14067  0.72416  0.47256  Biso   1.000  H
  H21      1.0000 0.64067  0.77584  0.47256  Biso   1.000  H
  H22      1.0000 0.85933  0.72416  0.97256  Biso   1.000  H
  H23      1.0000 0.64067  0.22416  0.02744  Biso   1.000  H
  H24      1.0000 0.85933  0.27584  0.52744  Biso   1.000  H
  C9       1.0000 0.28790  0.30000  0.46340  Biso   1.000  C
  C10      1.0000 0.21210  0.20000  0.96340  Biso   1.000  C
  C11      1.0000 0.28790  0.70000  0.03660  Biso   1.000  C
  C12      1.0000 0.21210  0.80000  0.53660  Biso   1.000  C
  C13      1.0000 0.71210  0.70000  0.53660  Biso   1.000  C
  C14      1.0000 0.78790  0.80000  0.03660  Biso   1.000  C
  C15      1.0000 0.71210  0.30000  0.96340  Biso   1.000  C
  C16      1.0000 0.78790  0.20000  0.46340  Biso   1.000  C
  H25      1.0000 0.28881  0.30978  0.43460  Biso   1.000  H
  H26      1.0000 0.21119  0.19022  0.93460  Biso   1.000  H
  H27      1.0000 0.28881  0.69022  0.06540  Biso   1.000  H
  H28      1.0000 0.21119  0.80978  0.56540  Biso   1.000  H
  H29      1.0000 0.71119  0.69022  0.56540  Biso   1.000  H
  H30      1.0000 0.78881  0.80978  0.06540  Biso   1.000  H
  H31      1.0000 0.71119  0.30978  0.93460  Biso   1.000  H
  H32      1.0000 0.78881  0.19022  0.43460  Biso   1.000  H
  H33      1.0000 0.25405  0.24073  0.46938  Biso   1.000  H
  H34      1.0000 0.24595  0.25927  0.96938  Biso   1.000  H
  H35      1.0000 0.25405  0.75927  0.03062  Biso   1.000  H
  H36      1.0000 0.24595  0.74073  0.53062  Biso   1.000  H
  H37      1.0000 0.74595  0.75927  0.53062  Biso   1.000  H
  H38      1.0000 0.75405  0.74073  0.03062  Biso   1.000  H
  H39      1.0000 0.74595  0.24073  0.96938  Biso   1.000  H
  H40      1.0000 0.75405  0.25927  0.46938  Biso   1.000  H
  H41      1.0000 0.25008  0.35081  0.47618  Biso   1.000  H
  H42      1.0000 0.24992  0.14919  0.97618  Biso   1.000  H
  H43      1.0000 0.25008  0.64919  0.02382  Biso   1.000  H
  H44      1.0000 0.24992  0.85081  0.52382  Biso   1.000  H
  H45      1.0000 0.74992  0.64919  0.52382  Biso   1.000  H
  H46      1.0000 0.75008  0.85081  0.02382  Biso   1.000  H
  H47      1.0000 0.74992  0.35081  0.97618  Biso   1.000  H
  H48      1.0000 0.75008  0.14919  0.47618  Biso   1.000  H
  C17      1.0000 0.50290  0.25130  0.42050  Biso   1.000  C
  C18      1.0000 0.99710  0.24870  0.92050  Biso   1.000  C
  C19      1.0000 0.50290  0.74870  0.07950  Biso   1.000  C
  C20      1.0000 0.99710  0.75130  0.57950  Biso   1.000  C
  C21      1.0000 0.49710  0.74870  0.57950  Biso   1.000  C
  C22      1.0000 0.00290  0.75130  0.07950  Biso   1.000  C
  C23      1.0000 0.49710  0.25130  0.92050  Biso   1.000  C
  C24      1.0000 0.00290  0.24870  0.42050  Biso   1.000  C
  C25      1.0000 0.44890  0.22520  0.45660  Biso   1.000  C
  C26      1.0000 0.05110  0.27480  0.95660  Biso   1.000  C
  C27      1.0000 0.44890  0.77480  0.04340  Biso   1.000  C
  C28      1.0000 0.05110  0.72520  0.54340  Biso   1.000  C
  C29      1.0000 0.55110  0.77480  0.54340  Biso   1.000  C
  C30      1.0000 0.94890  0.72520  0.04340  Biso   1.000  C
  C31      1.0000 0.55110  0.22520  0.95660  Biso   1.000  C
  C32      1.0000 0.94890  0.27480  0.45660  Biso   1.000  C
  C33      1.0000 0.45140  0.13650  0.46780  Biso   1.000  C
  C34      1.0000 0.04860  0.36350  0.96780  Biso   1.000  C
  C35      1.0000 0.45140  0.86350  0.03220  Biso   1.000  C
  C36      1.0000 0.04860  0.63650  0.53220  Biso   1.000  C
  C37      1.0000 0.54860  0.86350  0.53220  Biso   1.000  C
  C38      1.0000 0.95140  0.63650  0.03220  Biso   1.000  C
  C39      1.0000 0.54860  0.13650  0.96780  Biso   1.000  C
  C40      1.0000 0.95140  0.36350  0.46780  Biso   1.000  C
  H49      1.0000 0.41348  0.11893  0.49073  Biso   1.000  H
  H50      1.0000 0.08652  0.38107  0.99073  Biso   1.000  H
  H51      1.0000 0.41348  0.88107  0.00927  Biso   1.000  H
  H52      1.0000 0.08652  0.61893  0.50927  Biso   1.000  H
  H53      1.0000 0.58652  0.88107  0.50927  Biso   1.000  H
  H54      1.0000 0.91348  0.61893  0.00927  Biso   1.000  H
  H55      1.0000 0.58652  0.11893  0.99073  Biso   1.000  H
  H56      1.0000 0.91348  0.38107  0.49073  Biso   1.000  H
  C41      1.0000 0.50800  0.06590  0.44710  Biso   1.000  C
  C42      1.0000 0.99200  0.43410  0.94710  Biso   1.000  C
  C43      1.0000 0.50800  0.93410  0.05290  Biso   1.000  C
  C44      1.0000 0.99200  0.56590  0.55290  Biso   1.000  C
  C45      1.0000 0.49200  0.93410  0.55290  Biso   1.000  C
  C46      1.0000 0.00800  0.56590  0.05290  Biso   1.000  C
  C47      1.0000 0.49200  0.06590  0.94710  Biso   1.000  C
  C48      1.0000 0.00800  0.43410  0.44710  Biso   1.000  C
  H57      1.0000 0.51200  0.00437  0.45725  Biso   1.000  H
  H58      1.0000 0.98800  0.49563  0.95725  Biso   1.000  H
  H59      1.0000 0.51200  0.99563  0.04275  Biso   1.000  H
  H60      1.0000 0.98800  0.50437  0.54275  Biso   1.000  H
  H61      1.0000 0.48800  0.99563  0.54275  Biso   1.000  H
  H62      1.0000 0.01200  0.50437  0.04275  Biso   1.000  H
  H63      1.0000 0.48800  0.00437  0.95725  Biso   1.000  H
  H64      1.0000 0.01200  0.49563  0.45725  Biso   1.000  H
  C49      1.0000 0.55820  0.09030  0.41080  Biso   1.000  C
  C50      1.0000 0.94180  0.40970  0.91080  Biso   1.000  C
  C51      1.0000 0.55820  0.90970  0.08920  Biso   1.000  C
  C52      1.0000 0.94180  0.59030  0.58920  Biso   1.000  C
  C53      1.0000 0.44180  0.90970  0.58920  Biso   1.000  C
  C54      1.0000 0.05820  0.59030  0.08920  Biso   1.000  C
  C55      1.0000 0.44180  0.09030  0.91080  Biso   1.000  C
  C56      1.0000 0.05820  0.40970  0.41080  Biso   1.000  C
  H65      1.0000 0.59183  0.04544  0.39466  Biso   1.000  H
  H66      1.0000 0.90817  0.45456  0.89466  Biso   1.000  H
  H67      1.0000 0.59183  0.95456  0.10534  Biso   1.000  H
  H68      1.0000 0.90817  0.54544  0.60534  Biso   1.000  H
  H69      1.0000 0.40817  0.95456  0.60534  Biso   1.000  H
  H70      1.0000 0.09183  0.54544  0.10534  Biso   1.000  H
  H71      1.0000 0.40817  0.04544  0.89466  Biso   1.000  H
  H72      1.0000 0.09183  0.45456  0.39466  Biso   1.000  H
  C57      1.0000 0.55470  0.18300  0.40070  Biso   1.000  C
  C58      1.0000 0.94530  0.31700  0.90070  Biso   1.000  C
  C59      1.0000 0.55470  0.81700  0.09930  Biso   1.000  C
  C60      1.0000 0.94530  0.68300  0.59930  Biso   1.000  C
  C61      1.0000 0.44530  0.81700  0.59930  Biso   1.000  C
  C62      1.0000 0.05470  0.68300  0.09930  Biso   1.000  C
  C63      1.0000 0.44530  0.18300  0.90070  Biso   1.000  C
  C64      1.0000 0.05470  0.31700  0.40070  Biso   1.000  C
  H73      1.0000 0.59201  0.20112  0.37767  Biso   1.000  H
  H74      1.0000 0.90799  0.29888  0.87767  Biso   1.000  H
  H75      1.0000 0.59201  0.79888  0.12233  Biso   1.000  H
  H76      1.0000 0.90799  0.70112  0.62233  Biso   1.000  H
  H77      1.0000 0.40799  0.79888  0.62233  Biso   1.000  H
  H78      1.0000 0.09201  0.70112  0.12233  Biso   1.000  H
  H79      1.0000 0.40799  0.20112  0.87767  Biso   1.000  H
  H80      1.0000 0.09201  0.29888  0.37767  Biso   1.000  H
  C65      1.0000 0.61700  0.38890  0.37630  Biso   1.000  C
  C66      1.0000 0.88300  0.11110  0.87630  Biso   1.000  C
  C67      1.0000 0.61700  0.61110  0.12370  Biso   1.000  C
  C68      1.0000 0.88300  0.88890  0.62370  Biso   1.000  C
  C69      1.0000 0.38300  0.61110  0.62370  Biso   1.000  C
  C70      1.0000 0.11700  0.88890  0.12370  Biso   1.000  C
  C71      1.0000 0.38300  0.38890  0.87630  Biso   1.000  C
  C72      1.0000 0.11700  0.11110  0.37630  Biso   1.000  C
  C73      1.0000 0.61330  0.36430  0.33580  Biso   1.000  C
  C74      1.0000 0.88670  0.13570  0.83580  Biso   1.000  C
  C75      1.0000 0.61330  0.63570  0.16420  Biso   1.000  C
  C76      1.0000 0.88670  0.86430  0.66420  Biso   1.000  C
  C77      1.0000 0.38670  0.63570  0.66420  Biso   1.000  C
  C78      1.0000 0.11330  0.86430  0.16420  Biso   1.000  C
  C79      1.0000 0.38670  0.36430  0.83580  Biso   1.000  C
  C80      1.0000 0.11330  0.13570  0.33580  Biso   1.000  C
  H81      1.0000 0.55272  0.33692  0.32514  Biso   1.000  H
  H82      1.0000 0.94728  0.16308  0.82514  Biso   1.000  H
  H83      1.0000 0.55272  0.66308  0.17486  Biso   1.000  H
  H84      1.0000 0.94728  0.83692  0.67486  Biso   1.000  H
  H85      1.0000 0.44728  0.66308  0.67486  Biso   1.000  H
  H86      1.0000 0.05272  0.83692  0.17486  Biso   1.000  H
  H87      1.0000 0.44728  0.33692  0.82514  Biso   1.000  H
  H88      1.0000 0.05272  0.16308  0.32514  Biso   1.000  H
  C81      1.0000 0.69850  0.38010  0.31100  Biso   1.000  C
  C82      1.0000 0.80150  0.11990  0.81100  Biso   1.000  C
  C83      1.0000 0.69850  0.61990  0.18900  Biso   1.000  C
  C84      1.0000 0.80150  0.88010  0.68900  Biso   1.000  C
  C85      1.0000 0.30150  0.61990  0.68900  Biso   1.000  C
  C86      1.0000 0.19850  0.88010  0.18900  Biso   1.000  C
  C87      1.0000 0.30150  0.38010  0.81100  Biso   1.000  C
  C88      1.0000 0.19850  0.11990  0.31100  Biso   1.000  C
  H89      1.0000 0.69875  0.35864  0.28431  Biso   1.000  H
  H90      1.0000 0.80125  0.14136  0.78431  Biso   1.000  H
  H91      1.0000 0.69875  0.64136  0.21569  Biso   1.000  H
  H92      1.0000 0.80125  0.85864  0.71569  Biso   1.000  H
  H93      1.0000 0.30125  0.64136  0.71569  Biso   1.000  H
  H94      1.0000 0.19875  0.85864  0.21569  Biso   1.000  H
  H95      1.0000 0.30125  0.35864  0.78431  Biso   1.000  H
  H96      1.0000 0.19875  0.14136  0.28431  Biso   1.000  H
  C89      1.0000 0.78330  0.42830  0.32650  Biso   1.000  C
  C90      1.0000 0.71670  0.07170  0.82650  Biso   1.000  C
  C91      1.0000 0.78330  0.57170  0.17350  Biso   1.000  C
  C92      1.0000 0.71670  0.92830  0.67350  Biso   1.000  C
  C93      1.0000 0.21670  0.57170  0.67350  Biso   1.000  C
  C94      1.0000 0.28330  0.92830  0.17350  Biso   1.000  C
  C95      1.0000 0.21670  0.42830  0.82650  Biso   1.000  C
  C96      1.0000 0.28330  0.07170  0.32650  Biso   1.000  C
  C97      1.0000 0.78660  0.45210  0.36560  Biso   1.000  C
  C98      1.0000 0.71340  0.04790  0.86560  Biso   1.000  C
  C99      1.0000 0.78660  0.54790  0.13440  Biso   1.000  C
  C100     1.0000 0.71340  0.95210  0.63440  Biso   1.000  C
  C101     1.0000 0.21340  0.54790  0.63440  Biso   1.000  C
  C102     1.0000 0.28660  0.95210  0.13440  Biso   1.000  C
  C103     1.0000 0.21340  0.45210  0.86560  Biso   1.000  C
  C104     1.0000 0.28660  0.04790  0.36560  Biso   1.000  C
  H97      1.0000 0.84517  0.48362  0.37581  Biso   1.000  H
  H98      1.0000 0.65483  0.01638  0.87581  Biso   1.000  H
  H99      1.0000 0.84517  0.51638  0.12419  Biso   1.000  H
  H100     1.0000 0.65483  0.98362  0.62419  Biso   1.000  H
  H101     1.0000 0.15483  0.51638  0.62419  Biso   1.000  H
  H102     1.0000 0.34517  0.98362  0.12419  Biso   1.000  H
  H103     1.0000 0.15483  0.48362  0.87581  Biso   1.000  H
  H104     1.0000 0.34517  0.01638  0.37581  Biso   1.000  H
  C105     1.0000 0.70290  0.43030  0.39120  Biso   1.000  C
  C106     1.0000 0.79710  0.06970  0.89120  Biso   1.000  C
  C107     1.0000 0.70290  0.56970  0.10880  Biso   1.000  C
  C108     1.0000 0.79710  0.93030  0.60880  Biso   1.000  C
  C109     1.0000 0.29710  0.56970  0.60880  Biso   1.000  C
  C110     1.0000 0.20290  0.93030  0.10880  Biso   1.000  C
  C111     1.0000 0.29710  0.43030  0.89120  Biso   1.000  C
  C112     1.0000 0.20290  0.06970  0.39120  Biso   1.000  C
  H105     1.0000 0.70696  0.44460  0.41875  Biso   1.000  H
  H106     1.0000 0.79304  0.05540  0.91875  Biso   1.000  H
  H107     1.0000 0.70696  0.55540  0.08125  Biso   1.000  H
  H108     1.0000 0.79304  0.94460  0.58125  Biso   1.000  H
  H109     1.0000 0.29304  0.55540  0.58125  Biso   1.000  H
  H110     1.0000 0.20696  0.94460  0.08125  Biso   1.000  H
  H111     1.0000 0.29304  0.44460  0.91875  Biso   1.000  H
  H112     1.0000 0.20696  0.05540  0.41875  Biso   1.000  H
  C113     1.0000 0.87080  0.45590  0.29900  Biso   1.000  C
  C114     1.0000 0.62920  0.04410  0.79900  Biso   1.000  C
  C115     1.0000 0.87080  0.54410  0.20100  Biso   1.000  C
  C116     1.0000 0.62920  0.95590  0.70100  Biso   1.000  C
  C117     1.0000 0.12920  0.54410  0.70100  Biso   1.000  C
  C118     1.0000 0.37080  0.95590  0.20100  Biso   1.000  C
  C119     1.0000 0.12920  0.45590  0.79900  Biso   1.000  C
  C120     1.0000 0.37080  0.04410  0.29900  Biso   1.000  C
  C121     1.0000 0.39830  0.39470  0.37520  Biso   1.000  C
  C122     1.0000 0.10170  0.10530  0.87520  Biso   1.000  C
  C123     1.0000 0.39830  0.60530  0.12480  Biso   1.000  C
  C124     1.0000 0.10170  0.89470  0.62480  Biso   1.000  C
  C125     1.0000 0.60170  0.60530  0.62480  Biso   1.000  C
  C126     1.0000 0.89830  0.89470  0.12480  Biso   1.000  C
  C127     1.0000 0.60170  0.39470  0.87520  Biso   1.000  C
  C128     1.0000 0.89830  0.10530  0.37520  Biso   1.000  C
  C129     1.0000 0.35470  0.32610  0.35190  Biso   1.000  C
  C130     1.0000 0.14530  0.17390  0.85190  Biso   1.000  C
  C131     1.0000 0.35470  0.67390  0.14810  Biso   1.000  C
  C132     1.0000 0.14530  0.82610  0.64810  Biso   1.000  C
  C133     1.0000 0.64530  0.67390  0.64810  Biso   1.000  C
  C134     1.0000 0.85470  0.82610  0.14810  Biso   1.000  C
  C135     1.0000 0.64530  0.32610  0.85190  Biso   1.000  C
  C136     1.0000 0.85470  0.17390  0.35190  Biso   1.000  C
  H113     1.0000 0.38070  0.26450  0.35358  Biso   1.000  H
  H114     1.0000 0.11930  0.23550  0.85358  Biso   1.000  H
  H115     1.0000 0.38070  0.73550  0.14642  Biso   1.000  H
  H116     1.0000 0.11930  0.76450  0.64642  Biso   1.000  H
  H117     1.0000 0.61930  0.73550  0.64642  Biso   1.000  H
  H118     1.0000 0.88070  0.76450  0.14642  Biso   1.000  H
  H119     1.0000 0.61930  0.26450  0.85358  Biso   1.000  H
  H120     1.0000 0.88070  0.23550  0.35358  Biso   1.000  H
  C137     1.0000 0.27490  0.34460  0.32650  Biso   1.000  C
  C138     1.0000 0.22510  0.15540  0.82650  Biso   1.000  C
  C139     1.0000 0.27490  0.65540  0.17350  Biso   1.000  C
  C140     1.0000 0.22510  0.84460  0.67350  Biso   1.000  C
  C141     1.0000 0.72510  0.65540  0.67350  Biso   1.000  C
  C142     1.0000 0.77490  0.84460  0.17350  Biso   1.000  C
  C143     1.0000 0.72510  0.34460  0.82650  Biso   1.000  C
  C144     1.0000 0.77490  0.15540  0.32650  Biso   1.000  C
  H121     1.0000 0.24761  0.29722  0.30994  Biso   1.000  H
  H122     1.0000 0.25239  0.20278  0.80994  Biso   1.000  H
  H123     1.0000 0.24761  0.70278  0.19006  Biso   1.000  H
  H124     1.0000 0.25239  0.79722  0.69006  Biso   1.000  H
  H125     1.0000 0.75239  0.70278  0.69006  Biso   1.000  H
  H126     1.0000 0.74761  0.79722  0.19006  Biso   1.000  H
  H127     1.0000 0.75239  0.29722  0.80994  Biso   1.000  H
  H128     1.0000 0.74761  0.20278  0.30994  Biso   1.000  H
  C145     1.0000 0.23510  0.43330  0.32550  Biso   1.000  C
  C146     1.0000 0.26490  0.06670  0.82550  Biso   1.000  C
  C147     1.0000 0.23510  0.56670  0.17450  Biso   1.000  C
  C148     1.0000 0.26490  0.93330  0.67450  Biso   1.000  C
  C149     1.0000 0.76490  0.56670  0.67450  Biso   1.000  C
  C150     1.0000 0.73510  0.93330  0.17450  Biso   1.000  C
  C151     1.0000 0.76490  0.43330  0.82550  Biso   1.000  C
  C152     1.0000 0.73510  0.06670  0.32550  Biso   1.000  C
  C153     1.0000 0.28030  0.50390  0.34750  Biso   1.000  C
  C154     1.0000 0.21970  0.99610  0.84750  Biso   1.000  C
  C155     1.0000 0.28030  0.49610  0.15250  Biso   1.000  C
  C156     1.0000 0.21970  0.00390  0.65250  Biso   1.000  C
  C157     1.0000 0.71970  0.49610  0.65250  Biso   1.000  C
  C158     1.0000 0.78030  0.00390  0.15250  Biso   1.000  C
  C159     1.0000 0.71970  0.50390  0.84750  Biso   1.000  C
  C160     1.0000 0.78030  0.99610  0.34750  Biso   1.000  C
  H129     1.0000 0.25538  0.56571  0.34492  Biso   1.000  H
  H130     1.0000 0.24462  0.93429  0.84492  Biso   1.000  H
  H131     1.0000 0.25538  0.43429  0.15508  Biso   1.000  H
  H132     1.0000 0.24462  0.06571  0.65508  Biso   1.000  H
  H133     1.0000 0.74462  0.43429  0.65508  Biso   1.000  H
  H134     1.0000 0.75538  0.06571  0.15508  Biso   1.000  H
  H135     1.0000 0.74462  0.56571  0.84492  Biso   1.000  H
  H136     1.0000 0.75538  0.93429  0.34492  Biso   1.000  H
  C161     1.0000 0.36170  0.48540  0.37330  Biso   1.000  C
  C162     1.0000 0.13830  0.01460  0.87330  Biso   1.000  C
  C163     1.0000 0.36170  0.51460  0.12670  Biso   1.000  C
  C164     1.0000 0.13830  0.98540  0.62670  Biso   1.000  C
  C165     1.0000 0.63830  0.51460  0.62670  Biso   1.000  C
  C166     1.0000 0.86170  0.98540  0.12670  Biso   1.000  C
  C167     1.0000 0.63830  0.48540  0.87330  Biso   1.000  C
  C168     1.0000 0.86170  0.01460  0.37330  Biso   1.000  C
  H137     1.0000 0.39121  0.53329  0.38909  Biso   1.000  H
  H138     1.0000 0.10879  0.96671  0.88909  Biso   1.000  H
  H139     1.0000 0.39121  0.46671  0.11091  Biso   1.000  H
  H140     1.0000 0.10879  0.03329  0.61091  Biso   1.000  H
  H141     1.0000 0.60879  0.46671  0.61091  Biso   1.000  H
  H142     1.0000 0.89121  0.03329  0.11091  Biso   1.000  H
  H143     1.0000 0.60879  0.53329  0.88909  Biso   1.000  H
  H144     1.0000 0.89121  0.96671  0.38909  Biso   1.000  H
  C169     1.0000 0.14540  0.45940  0.29790  Biso   1.000  C
  C170     1.0000 0.35460  0.04060  0.79790  Biso   1.000  C
  C171     1.0000 0.14540  0.54060  0.20210  Biso   1.000  C
  C172     1.0000 0.35460  0.95940  0.70210  Biso   1.000  C
  C173     1.0000 0.85460  0.54060  0.70210  Biso   1.000  C
  C174     1.0000 0.64540  0.95940  0.20210  Biso   1.000  C
  C175     1.0000 0.85460  0.45940  0.79790  Biso   1.000  C
  C176     1.0000 0.64540  0.04060  0.29790  Biso   1.000  C
