data_image0
_cell_length_a       11.1399
_cell_length_b       12.4564
_cell_length_c       15.1237
_cell_angle_alpha    81.32
_cell_angle_beta     82.723
_cell_angle_gamma    63.883

_symmetry_space_group_name_H-M    "P 1"
_symmetry_int_tables_number       1

loop_
  _symmetry_equiv_pos_as_xyz
  'x, y, z'

loop_
  _atom_site_label
  _atom_site_occupancy
  _atom_site_fract_x
  _atom_site_fract_y
  _atom_site_fract_z
  _atom_site_thermal_displace_type
  _atom_site_B_iso_or_equiv
  _atom_site_type_symbol
  Ho1      1.0000 0.40353  0.88659  0.03697  Biso   1.000  Ho
  Ho2      1.0000 0.59647  0.11341  0.96303  Biso   1.000  Ho
  I1       1.0000 0.15240  0.57529  0.49104  Biso   1.000  I
  I2       1.0000 0.84760  0.42471  0.50896  Biso   1.000  I
  Cu1      1.0000 0.01528  0.49876  0.41106  Biso   1.000  Cu
  Cu2      1.0000 0.98472  0.50124  0.58894  Biso   1.000  Cu
  O1       1.0000 0.47720  0.13400  0.10089  Biso   1.000  O
  O2       1.0000 0.52280  0.86600  0.89911  Biso   1.000  O
  O3       1.0000 0.33600  0.04640  0.12359  Biso   1.000  O
  O4       1.0000 0.66400  0.95360  0.87641  Biso   1.000  O
  O5       1.0000 0.60070  0.87750  0.07140  Biso   1.000  O
  O6       1.0000 0.39930  0.12250  0.92860  Biso   1.000  O
  O7       1.0000 0.75330  0.94960  0.05055  Biso   1.000  O
  O8       1.0000 0.24670  0.05040  0.94945  Biso   1.000  O
  O9       1.0000 0.54380  0.67760  0.04500  Biso   1.000  O
  O10      1.0000 0.45620  0.32240  0.95500  Biso   1.000  O
  O11      1.0000 0.29400  0.81150  0.95840  Biso   1.000  O
  O12      1.0000 0.70600  0.18850  0.04160  Biso   1.000  O
  O13      1.0000 0.39910  0.79970  0.19470  Biso   1.000  O
  O14      1.0000 0.60090  0.20030  0.80530  Biso   1.000  O
  O15      1.0000 0.21240  0.87530  0.13260  Biso   1.000  O
  O16      1.0000 0.78760  0.12470  0.86740  Biso   1.000  O
  N1       1.0000 0.14560  0.35990  0.33770  Biso   1.000  N
  N2       1.0000 0.85440  0.64010  0.66230  Biso   1.000  N
  N3       1.0000 0.91430  0.62840  0.30960  Biso   1.000  N
  N4       1.0000 0.08570  0.37160  0.69040  Biso   1.000  N
  C1       1.0000 0.29900  0.20120  0.21120  Biso   1.000  C
  C2       1.0000 0.70100  0.79880  0.78880  Biso   1.000  C
  N5       1.0000 0.13730  0.86660  0.85860  Biso   1.000  N
  N6       1.0000 0.86270  0.13340  0.14140  Biso   1.000  N
  C3       1.0000 0.34050  0.28110  0.23670  Biso   1.000  C
  C4       1.0000 0.65950  0.71890  0.76330  Biso   1.000  C
  H1       1.0000 0.42220  0.28300  0.21160  Biso   1.000  H
  H2       1.0000 0.57780  0.71700  0.78840  Biso   1.000  H
  C5       1.0000 0.37770  0.11980  0.13940  Biso   1.000  C
  C6       1.0000 0.62230  0.88020  0.86060  Biso   1.000  C
  C7       1.0000 0.70720  0.87810  0.08980  Biso   1.000  C
  C8       1.0000 0.29280  0.12190  0.91020  Biso   1.000  C
  N7       1.0000 0.27490  0.82490  0.20200  Biso   1.000  N
  N8       1.0000 0.72510  0.17510  0.79800  Biso   1.000  N
  C9       1.0000 0.78220  0.78910  0.16550  Biso   1.000  C
  C10      1.0000 0.21780  0.21090  0.83450  Biso   1.000  C
  C11      1.0000 0.73840  0.70540  0.20880  Biso   1.000  C
  C12      1.0000 0.26160  0.29460  0.79120  Biso   1.000  C
  H3       1.0000 0.66220  0.70160  0.19010  Biso   1.000  H
  H4       1.0000 0.33780  0.29840  0.80990  Biso   1.000  H
  C13      1.0000 0.26110  0.35810  0.29950  Biso   1.000  C
  C14      1.0000 0.73890  0.64190  0.70050  Biso   1.000  C
  H5       1.0000 0.29050  0.41270  0.31620  Biso   1.000  H
  H6       1.0000 0.70950  0.58730  0.68380  Biso   1.000  H
  C15      1.0000 0.89500  0.78990  0.19520  Biso   1.000  C
  C16      1.0000 0.10500  0.21010  0.80480  Biso   1.000  C
  H7       1.0000 0.92930  0.84490  0.16650  Biso   1.000  H
  H8       1.0000 0.07070  0.15510  0.83350  Biso   1.000  H
  N9       1.0000 0.69470  0.52100  0.97250  Biso   1.000  N
  N10      1.0000 0.30530  0.47900  0.02750  Biso   1.000  N
  C17      1.0000 0.18180  0.19930  0.25290  Biso   1.000  C
  C18      1.0000 0.81820  0.80070  0.74710  Biso   1.000  C
  H9       1.0000 0.15190  0.14370  0.23880  Biso   1.000  H
  H10      1.0000 0.84810  0.85630  0.76120  Biso   1.000  H
  C19      1.0000 0.57480  0.60740  0.98670  Biso   1.000  C
  C20      1.0000 0.42520  0.39260  0.01330  Biso   1.000  C
  H11      1.0000 0.50680  0.61710  0.95000  Biso   1.000  H
  H12      1.0000 0.49320  0.38290  0.05000  Biso   1.000  H
  C21      1.0000 0.95640  0.70940  0.26710  Biso   1.000  C
  C22      1.0000 0.04360  0.29060  0.73290  Biso   1.000  C
  H13      1.0000 0.03240  0.71170  0.28750  Biso   1.000  H
  H14      1.0000 0.96760  0.28830  0.71250  Biso   1.000  H
  C23      1.0000 0.80660  0.62760  0.27930  Biso   1.000  C
  C24      1.0000 0.19340  0.37240  0.72070  Biso   1.000  C
  H15      1.0000 0.77560  0.57030  0.30800  Biso   1.000  H
  H16      1.0000 0.22440  0.42970  0.69200  Biso   1.000  H
  C25      1.0000 0.25640  0.84620  0.88080  Biso   1.000  C
  C26      1.0000 0.74360  0.15380  0.11920  Biso   1.000  C
  H17      1.0000 0.31720  0.85860  0.83510  Biso   1.000  H
  H18      1.0000 0.68280  0.14140  0.16490  Biso   1.000  H
  O17      1.0000 0.22060  0.80140  0.27200  Biso   1.000  O
  O18      1.0000 0.77940  0.19860  0.72800  Biso   1.000  O
  C27      1.0000 0.10880  0.27890  0.31510  Biso   1.000  C
  C28      1.0000 0.89120  0.72110  0.68490  Biso   1.000  C
  H19      1.0000 0.02870  0.27630  0.34320  Biso   1.000  H
  H20      1.0000 0.97130  0.72370  0.65680  Biso   1.000  H
  C29      1.0000 0.10230  0.90100  0.76540  Biso   1.000  C
  C30      1.0000 0.89770  0.09900  0.23460  Biso   1.000  C
  H21      1.0000 0.17780  0.90740  0.72780  Biso   1.000  H
  H22      1.0000 0.82220  0.09260  0.27220  Biso   1.000  H
  H23      1.0000 0.02360  0.97880  0.76070  Biso   1.000  H
  H24      1.0000 0.97640  0.02120  0.23930  Biso   1.000  H
  H25      1.0000 0.08210  0.84000  0.74520  Biso   1.000  H
  H26      1.0000 0.91790  0.16000  0.25480  Biso   1.000  H
  C31      1.0000 0.72310  0.43610  0.90680  Biso   1.000  C
  C32      1.0000 0.27690  0.56390  0.09320  Biso   1.000  C
  H27      1.0000 0.64260  0.45890  0.87490  Biso   1.000  H
  H28      1.0000 0.35740  0.54110  0.12510  Biso   1.000  H
  H29      1.0000 0.74960  0.35480  0.93780  Biso   1.000  H
  H30      1.0000 0.25040  0.64520  0.06220  Biso   1.000  H
  H31      1.0000 0.79600  0.43770  0.86380  Biso   1.000  H
  H32      1.0000 0.20400  0.56230  0.13620  Biso   1.000  H
  C33      1.0000 0.03780  0.85240  0.92550  Biso   1.000  C
  C34      1.0000 0.96220  0.14760  0.07450  Biso   1.000  C
  H33      1.0000 0.07430  0.82920  0.98470  Biso   1.000  H
  H34      1.0000 0.92570  0.17080  0.01530  Biso   1.000  H
  H35      1.0000 0.01520  0.78990  0.91070  Biso   1.000  H
  H36      1.0000 0.98480  0.21010  0.08930  Biso   1.000  H
  H37      1.0000 0.95700  0.92870  0.92620  Biso   1.000  H
  H38      1.0000 0.04300  0.07130  0.07380  Biso   1.000  H
  C35      1.0000 0.80230  0.50350  0.02680  Biso   1.000  C
  C36      1.0000 0.19770  0.49650  0.97320  Biso   1.000  C
  H39      1.0000 0.76960  0.56650  0.06720  Biso   1.000  H
  H40      1.0000 0.23040  0.43350  0.93280  Biso   1.000  H
  H41      1.0000 0.87760  0.50750  0.98760  Biso   1.000  H
  H42      1.0000 0.12240  0.49250  0.01240  Biso   1.000  H
  H43      1.0000 0.83200  0.42460  0.06220  Biso   1.000  H
  H44      1.0000 0.16800  0.57540  0.93780  Biso   1.000  H
  N11      1.0000 0.44780  0.53890  0.67760  Biso   1.000  N
  N12      1.0000 0.55220  0.46110  0.32240  Biso   1.000  N
  O19      1.0000 0.40290  0.60680  0.81420  Biso   1.000  O
  O20      1.0000 0.59710  0.39320  0.18580  Biso   1.000  O
  C37      1.0000 0.43890  0.52570  0.76600  Biso   1.000  C
  C38      1.0000 0.56110  0.47430  0.23400  Biso   1.000  C
  H45      1.0000 0.46250  0.44660  0.79490  Biso   1.000  H
  H46      1.0000 0.53750  0.55340  0.20510  Biso   1.000  H
  C39      1.0000 0.49610  0.43510  0.62830  Biso   1.000  C
  C40      1.0000 0.50390  0.56490  0.37170  Biso   1.000  C
  H47      1.0000 0.51380  0.36270  0.67050  Biso   1.000  H
  H48      1.0000 0.48620  0.63730  0.32950  Biso   1.000  H
  H49      1.0000 0.57900  0.42690  0.59280  Biso   1.000  H
  H50      1.0000 0.42100  0.57310  0.40720  Biso   1.000  H
  H51      1.0000 0.42820  0.44540  0.58840  Biso   1.000  H
  H52      1.0000 0.57180  0.55460  0.41160  Biso   1.000  H
  C41      1.0000 0.41550  0.65490  0.62620  Biso   1.000  C
  C42      1.0000 0.58450  0.34510  0.37380  Biso   1.000  C
  H53      1.0000 0.38420  0.71740  0.66710  Biso   1.000  H
  H54      1.0000 0.61580  0.28260  0.33290  Biso   1.000  H
  H55      1.0000 0.34490  0.67200  0.58640  Biso   1.000  H
  H56      1.0000 0.65510  0.32800  0.41360  Biso   1.000  H
  H57      1.0000 0.49560  0.65400  0.59030  Biso   1.000  H
  H58      1.0000 0.50440  0.34600  0.40970  Biso   1.000  H
  N13      1.0000 0.40320  0.10720  0.59140  Biso   1.000  N
  N14      1.0000 0.59680  0.89280  0.40860  Biso   1.000  N
  O21      1.0000 0.37920  0.95560  0.68810  Biso   1.000  O
  O22      1.0000 0.62080  0.04440  0.31190  Biso   1.000  O
  C43      1.0000 0.35690  0.03180  0.63650  Biso   1.000  C
  C44      1.0000 0.64310  0.96820  0.36350  Biso   1.000  C
  H59      1.0000 0.27160  0.05200  0.61620  Biso   1.000  H
  H60      1.0000 0.72840  0.94800  0.38380  Biso   1.000  H
  C45      1.0000 0.34140  0.18580  0.52110  Biso   1.000  C
  C46      1.0000 0.65860  0.81420  0.47890  Biso   1.000  C
  H61      1.0000 0.26020  0.17810  0.51190  Biso   1.000  H
  H62      1.0000 0.73980  0.82190  0.48810  Biso   1.000  H
  H63      1.0000 0.40210  0.16830  0.46690  Biso   1.000  H
  H64      1.0000 0.59790  0.83170  0.53310  Biso   1.000  H
  H65      1.0000 0.31730  0.26800  0.53370  Biso   1.000  H
  H66      1.0000 0.68270  0.73200  0.46630  Biso   1.000  H
  C47      1.0000 0.51900  0.11370  0.60970  Biso   1.000  C
  C48      1.0000 0.48100  0.88630  0.39030  Biso   1.000  C
  H67      1.0000 0.55960  0.05450  0.66040  Biso   1.000  H
  H68      1.0000 0.44040  0.94550  0.33960  Biso   1.000  H
  H69      1.0000 0.49630  0.19450  0.62470  Biso   1.000  H
  H70      1.0000 0.50370  0.80550  0.37530  Biso   1.000  H
  H71      1.0000 0.58250  0.09660  0.55680  Biso   1.000  H
  H72      1.0000 0.41750  0.90340  0.44320  Biso   1.000  H
  O23      1.0000 0.00000  0.00000  0.50000  Biso   1.000  O
