data_image0
_cell_length_a       11.2135
_cell_length_b       12.5387
_cell_length_c       15.1202
_cell_angle_alpha    92.092
_cell_angle_beta     97.415
_cell_angle_gamma    116.389

_symmetry_space_group_name_H-M    "P 1"
_symmetry_int_tables_number       1

loop_
  _symmetry_equiv_pos_as_xyz
  'x, y, z'

loop_
  _atom_site_label
  _atom_site_occupancy
  _atom_site_fract_x
  _atom_site_fract_y
  _atom_site_fract_z
  _atom_site_thermal_displace_type
  _atom_site_B_iso_or_equiv
  _atom_site_type_symbol
  I1       1.0000 0.27512  0.92757  0.49050  Biso   1.000  I
  I2       1.0000 0.72488  0.07243  0.50950  Biso   1.000  I
  Cu1      1.0000 0.48627  0.00199  0.41057  Biso   1.000  Cu
  Cu2      1.0000 0.51373  0.99801  0.58943  Biso   1.000  Cu
  Y1       1.0000 0.70833  0.61286  0.03624  Biso   1.000  Y
  Y2       1.0000 0.29167  0.38714  0.96376  Biso   1.000  Y
  O1       1.0000 0.61820  0.45500  0.12390  Biso   1.000  O
  O2       1.0000 0.38180  0.54500  0.87610  Biso   1.000  O
  O3       1.0000 0.39190  0.36900  0.10150  Biso   1.000  O
  O4       1.0000 0.60810  0.63100  0.89850  Biso   1.000  O
  O5       1.0000 0.30180  0.55210  0.05100  Biso   1.000  O
  O6       1.0000 0.69820  0.44790  0.94900  Biso   1.000  O
  O7       1.0000 0.52430  0.62460  0.07190  Biso   1.000  O
  O8       1.0000 0.47570  0.37540  0.92810  Biso   1.000  O
  O9       1.0000 0.88980  0.68490  0.95710  Biso   1.000  O
  O10      1.0000 0.11020  0.31510  0.04290  Biso   1.000  O
  O11      1.0000 0.77480  0.82040  0.04160  Biso   1.000  O
  O12      1.0000 0.22520  0.17960  0.95840  Biso   1.000  O
  N1       1.0000 0.49650  0.14190  0.33730  Biso   1.000  N
  N2       1.0000 0.50350  0.85810  0.66270  Biso   1.000  N
  O13      1.0000 0.80250  0.70140  0.19240  Biso   1.000  O
  O14      1.0000 0.19750  0.29860  0.80760  Biso   1.000  O
  N3       1.0000 0.45800  0.87330  0.30830  Biso   1.000  N
  N4       1.0000 0.54200  0.12670  0.69170  Biso   1.000  N
  O15      1.0000 0.90930  0.62240  0.13170  Biso   1.000  O
  O16      1.0000 0.09070  0.37760  0.86830  Biso   1.000  O
  N5       1.0000 0.99220  0.63040  0.85910  Biso   1.000  N
  N6       1.0000 0.00780  0.36960  0.14090  Biso   1.000  N
  C1       1.0000 0.50240  0.30100  0.21140  Biso   1.000  C
  C2       1.0000 0.49760  0.69900  0.78860  Biso   1.000  C
  C3       1.0000 0.31770  0.71150  0.19450  Biso   1.000  C
  C4       1.0000 0.68230  0.28850  0.80550  Biso   1.000  C
  H1       1.0000 0.22930  0.65620  0.16640  Biso   1.000  H
  H2       1.0000 0.77070  0.34380  0.83360  Biso   1.000  H
  C5       1.0000 0.50430  0.38260  0.13970  Biso   1.000  C
  C6       1.0000 0.49570  0.61740  0.86030  Biso   1.000  C
  C7       1.0000 0.41750  0.62390  0.08980  Biso   1.000  C
  C8       1.0000 0.58250  0.37610  0.91020  Biso   1.000  C
  C9       1.0000 0.43040  0.71300  0.16420  Biso   1.000  C
  C10      1.0000 0.56960  0.28700  0.83580  Biso   1.000  C
  C11      1.0000 0.38210  0.22350  0.23780  Biso   1.000  C
  C12      1.0000 0.61790  0.77650  0.76220  Biso   1.000  C
  H3       1.0000 0.29960  0.22340  0.21360  Biso   1.000  H
  H4       1.0000 0.70040  0.77660  0.78640  Biso   1.000  H
  N7       1.0000 0.89910  0.67520  0.19970  Biso   1.000  N
  N8       1.0000 0.10090  0.32480  0.80030  Biso   1.000  N
  C13      1.0000 0.38480  0.14600  0.30040  Biso   1.000  C
  C14      1.0000 0.61520  0.85400  0.69960  Biso   1.000  C
  H5       1.0000 0.30190  0.09280  0.31780  Biso   1.000  H
  H6       1.0000 0.69810  0.90720  0.68220  Biso   1.000  H
  C15      1.0000 0.55610  0.79710  0.20680  Biso   1.000  C
  C16      1.0000 0.44390  0.20290  0.79320  Biso   1.000  C
  H7       1.0000 0.63540  0.80120  0.18790  Biso   1.000  H
  H8       1.0000 0.36460  0.19880  0.81210  Biso   1.000  H
  C17      1.0000 0.56550  0.87500  0.27710  Biso   1.000  C
  C18      1.0000 0.43450  0.12500  0.72290  Biso   1.000  C
  H9       1.0000 0.65270  0.93310  0.30490  Biso   1.000  H
  H10      1.0000 0.34730  0.06690  0.69510  Biso   1.000  H
  C19      1.0000 0.81550  0.89130  0.98520  Biso   1.000  C
  C20      1.0000 0.18450  0.10870  0.01480  Biso   1.000  C
  H11      1.0000 0.87630  0.88300  0.95040  Biso   1.000  H
  H12      1.0000 0.12370  0.11700  0.04960  Biso   1.000  H
  C21      1.0000 0.89400  0.64940  0.88050  Biso   1.000  C
  C22      1.0000 0.10600  0.35060  0.11950  Biso   1.000  C
  H13      1.0000 0.82080  0.63520  0.83440  Biso   1.000  H
  H14      1.0000 0.17920  0.36480  0.16560  Biso   1.000  H
  C23      1.0000 0.61870  0.30010  0.25250  Biso   1.000  C
  C24      1.0000 0.38130  0.69990  0.74750  Biso   1.000  C
  H15      1.0000 0.70360  0.35470  0.23860  Biso   1.000  H
  H16      1.0000 0.29640  0.64530  0.76140  Biso   1.000  H
  N9       1.0000 0.78180  0.97720  0.96930  Biso   1.000  N
  N10      1.0000 0.21820  0.02280  0.03070  Biso   1.000  N
  C25      1.0000 0.33650  0.79190  0.26630  Biso   1.000  C
  C26      1.0000 0.66350  0.20810  0.73370  Biso   1.000  C
  H17      1.0000 0.25890  0.78930  0.28700  Biso   1.000  H
  H18      1.0000 0.74110  0.21070  0.71300  Biso   1.000  H
  O17      1.0000 0.97920  0.69900  0.26840  Biso   1.000  O
  O18      1.0000 0.02080  0.30100  0.73160  Biso   1.000  O
  C27      1.0000 0.84030  0.06350  0.90510  Biso   1.000  C
  C28      1.0000 0.15970  0.93650  0.09490  Biso   1.000  C
  H19      1.0000 0.90470  0.04530  0.87790  Biso   1.000  H
  H20      1.0000 0.09530  0.95470  0.12210  Biso   1.000  H
  H21      1.0000 0.88690  0.14460  0.93640  Biso   1.000  H
  H22      1.0000 0.11310  0.85540  0.06360  Biso   1.000  H
  H23      1.0000 0.76830  0.05810  0.85820  Biso   1.000  H
  H24      1.0000 0.23170  0.94190  0.14180  Biso   1.000  H
  C29      1.0000 0.61170  0.21980  0.31370  Biso   1.000  C
  C30      1.0000 0.38830  0.78020  0.68630  Biso   1.000  C
  H25      1.0000 0.69320  0.21990  0.34060  Biso   1.000  H
  H26      1.0000 0.30680  0.78010  0.65940  Biso   1.000  H
  C31      1.0000 0.99460  0.59330  0.76710  Biso   1.000  C
  C32      1.0000 0.00540  0.40670  0.23290  Biso   1.000  C
  H27      1.0000 0.91420  0.58650  0.72810  Biso   1.000  H
  H28      1.0000 0.08580  0.41350  0.27190  Biso   1.000  H
  H29      1.0000 0.99570  0.51550  0.76440  Biso   1.000  H
  H30      1.0000 0.00430  0.48450  0.23560  Biso   1.000  H
  H31      1.0000 0.07560  0.65290  0.74700  Biso   1.000  H
  H32      1.0000 0.92440  0.34710  0.25300  Biso   1.000  H
  C33      1.0000 0.10380  0.64540  0.92690  Biso   1.000  C
  C34      1.0000 0.89620  0.35460  0.07310  Biso   1.000  C
  H33      1.0000 0.09000  0.66990  0.98550  Biso   1.000  H
  H34      1.0000 0.91000  0.33010  0.01450  Biso   1.000  H
  H35      1.0000 0.18810  0.70690  0.91200  Biso   1.000  H
  H36      1.0000 0.81190  0.29310  0.08800  Biso   1.000  H
  H37      1.0000 0.10870  0.56940  0.92910  Biso   1.000  H
  H38      1.0000 0.89130  0.43060  0.07090  Biso   1.000  H
  C35      1.0000 0.68390  0.98990  0.01850  Biso   1.000  C
  C36      1.0000 0.31610  0.01010  0.98150  Biso   1.000  C
  H39      1.0000 0.65320  0.92680  0.05870  Biso   1.000  H
  H40      1.0000 0.34680  0.07320  0.94130  Biso   1.000  H
  H41      1.0000 0.60650  0.98310  0.97600  Biso   1.000  H
  H42      1.0000 0.39350  0.01690  0.02400  Biso   1.000  H
  H43      1.0000 0.72640  0.06840  0.05390  Biso   1.000  H
  H44      1.0000 0.27360  0.93160  0.94610  Biso   1.000  H
  N11      1.0000 0.01400  0.96010  0.67930  Biso   1.000  N
  N12      1.0000 0.98600  0.03990  0.32070  Biso   1.000  N
  O19      1.0000 0.99160  0.89470  0.81490  Biso   1.000  O
  O20      1.0000 0.00840  0.10530  0.18510  Biso   1.000  O
  C37      1.0000 0.03660  0.97440  0.76660  Biso   1.000  C
  C38      1.0000 0.96340  0.02560  0.23340  Biso   1.000  C
  H45      1.0000 0.09260  0.05320  0.79500  Biso   1.000  H
  H46      1.0000 0.90740  0.94680  0.20500  Biso   1.000  H
  C39      1.0000 0.06700  0.06240  0.63060  Biso   1.000  C
  C40      1.0000 0.93300  0.93760  0.36940  Biso   1.000  C
  H47      1.0000 0.12090  0.13440  0.67270  Biso   1.000  H
  H48      1.0000 0.87910  0.86560  0.32730  Biso   1.000  H
  H49      1.0000 0.99240  0.07060  0.59530  Biso   1.000  H
  H50      1.0000 0.00760  0.92940  0.40470  Biso   1.000  H
  H51      1.0000 0.12390  0.05230  0.59030  Biso   1.000  H
  H52      1.0000 0.87610  0.94770  0.40970  Biso   1.000  H
  C41      1.0000 0.93360  0.84710  0.62760  Biso   1.000  C
  C42      1.0000 0.06640  0.15290  0.37240  Biso   1.000  C
  H53      1.0000 0.90320  0.78400  0.66790  Biso   1.000  H
  H54      1.0000 0.09680  0.21600  0.33210  Biso   1.000  H
  H55      1.0000 0.98730  0.83100  0.58770  Biso   1.000  H
  H56      1.0000 0.01270  0.16900  0.41230  Biso   1.000  H
  H57      1.0000 0.85510  0.84850  0.59180  Biso   1.000  H
  H58      1.0000 0.14490  0.15150  0.40820  Biso   1.000  H
  N13      1.0000 0.48980  0.39200  0.59170  Biso   1.000  N
  N14      1.0000 0.51020  0.60800  0.40830  Biso   1.000  N
  O21      1.0000 0.66400  0.54020  0.68610  Biso   1.000  O
  O22      1.0000 0.33600  0.45980  0.31390  Biso   1.000  O
  C43      1.0000 0.61530  0.46440  0.63240  Biso   1.000  C
  C44      1.0000 0.38470  0.53560  0.36760  Biso   1.000  C
  H59      1.0000 0.67970  0.44620  0.60920  Biso   1.000  H
  H60      1.0000 0.32030  0.55380  0.39080  Biso   1.000  H
  C45      1.0000 0.47540  0.31630  0.51810  Biso   1.000  C
  C46      1.0000 0.52460  0.68370  0.48190  Biso   1.000  C
  H61      1.0000 0.56440  0.32570  0.50900  Biso   1.000  H
  H62      1.0000 0.43560  0.67430  0.49100  Biso   1.000  H
  H63      1.0000 0.43290  0.33620  0.46480  Biso   1.000  H
  H64      1.0000 0.56710  0.66380  0.53520  Biso   1.000  H
  H65      1.0000 0.41880  0.23330  0.52840  Biso   1.000  H
  H66      1.0000 0.58120  0.76670  0.47160  Biso   1.000  H
  C47      1.0000 0.37080  0.38660  0.60620  Biso   1.000  C
  C48      1.0000 0.62920  0.61340  0.39380  Biso   1.000  C
  H67      1.0000 0.38660  0.44420  0.65740  Biso   1.000  H
  H68      1.0000 0.61340  0.55580  0.34260  Biso   1.000  H
  H69      1.0000 0.31120  0.30570  0.61920  Biso   1.000  H
  H70      1.0000 0.68880  0.69430  0.38080  Biso   1.000  H
  H71      1.0000 0.32830  0.40610  0.55270  Biso   1.000  H
  H72      1.0000 0.67170  0.59390  0.44730  Biso   1.000  H
  O23      1.0000 0.00000  0.50000  0.50000  Biso   1.000  O
