data_image0
_cell_length_a       7.4572
_cell_length_b       12.5914
_cell_length_c       19.1254
_cell_angle_alpha    90
_cell_angle_beta     90
_cell_angle_gamma    102.692

_symmetry_space_group_name_H-M    "P 1"
_symmetry_int_tables_number       1

loop_
  _symmetry_equiv_pos_as_xyz
  'x, y, z'

loop_
  _atom_site_label
  _atom_site_occupancy
  _atom_site_fract_x
  _atom_site_fract_y
  _atom_site_fract_z
  _atom_site_thermal_displace_type
  _atom_site_B_iso_or_equiv
  _atom_site_type_symbol
  C1       1.0000 0.21410  0.40630  0.39190  Biso   1.000  C
  C2       1.0000 0.28590  0.09370  0.89190  Biso   1.000  C
  C3       1.0000 0.78590  0.59370  0.60810  Biso   1.000  C
  C4       1.0000 0.71410  0.90630  0.10810  Biso   1.000  C
  H1       1.0000 0.27370  0.43820  0.43440  Biso   1.000  H
  H2       1.0000 0.22630  0.06180  0.93440  Biso   1.000  H
  H3       1.0000 0.72630  0.56180  0.56560  Biso   1.000  H
  H4       1.0000 0.77370  0.93820  0.06560  Biso   1.000  H
  H5       1.0000 0.08280  0.39920  0.39760  Biso   1.000  H
  H6       1.0000 0.41720  0.10080  0.89760  Biso   1.000  H
  H7       1.0000 0.91720  0.60080  0.60240  Biso   1.000  H
  H8       1.0000 0.58280  0.89920  0.10240  Biso   1.000  H
  C5       1.0000 0.25300  0.29470  0.38220  Biso   1.000  C
  C6       1.0000 0.24700  0.20530  0.88220  Biso   1.000  C
  C7       1.0000 0.74700  0.70530  0.61780  Biso   1.000  C
  C8       1.0000 0.75300  0.79470  0.11780  Biso   1.000  C
  H9       1.0000 0.38140  0.30210  0.36990  Biso   1.000  H
  H10      1.0000 0.11860  0.19790  0.86990  Biso   1.000  H
  H11      1.0000 0.61860  0.69790  0.63010  Biso   1.000  H
  H12      1.0000 0.88140  0.80210  0.13010  Biso   1.000  H
  H13      1.0000 0.17920  0.25830  0.34380  Biso   1.000  H
  H14      1.0000 0.32080  0.24170  0.84380  Biso   1.000  H
  H15      1.0000 0.82080  0.74170  0.65620  Biso   1.000  H
  H16      1.0000 0.67920  0.75830  0.15620  Biso   1.000  H
  C9       1.0000 0.21160  0.22590  0.44710  Biso   1.000  C
  C10      1.0000 0.28840  0.27410  0.94710  Biso   1.000  C
  C11      1.0000 0.78840  0.77410  0.55290  Biso   1.000  C
  C12      1.0000 0.71160  0.72590  0.05290  Biso   1.000  C
  H17      1.0000 0.09090  0.23010  0.46420  Biso   1.000  H
  H18      1.0000 0.40910  0.26990  0.96420  Biso   1.000  H
  H19      1.0000 0.90910  0.76990  0.53580  Biso   1.000  H
  H20      1.0000 0.59090  0.73010  0.03580  Biso   1.000  H
  H21      1.0000 0.30040  0.25600  0.48290  Biso   1.000  H
  H22      1.0000 0.19960  0.24400  0.98290  Biso   1.000  H
  H23      1.0000 0.69960  0.74400  0.51710  Biso   1.000  H
  H24      1.0000 0.80040  0.75600  0.01710  Biso   1.000  H
  C13      1.0000 0.82140  0.62000  0.28240  Biso   1.000  C
  C14      1.0000 0.67860  0.88000  0.78240  Biso   1.000  C
  C15      1.0000 0.17860  0.38000  0.71760  Biso   1.000  C
  C16      1.0000 0.32140  0.12000  0.21760  Biso   1.000  C
  H25      1.0000 0.88700  0.65440  0.24420  Biso   1.000  H
  H26      1.0000 0.61300  0.84560  0.74420  Biso   1.000  H
  H27      1.0000 0.11300  0.34560  0.75580  Biso   1.000  H
  H28      1.0000 0.38700  0.15440  0.25580  Biso   1.000  H
  C17      1.0000 0.63360  0.58660  0.27660  Biso   1.000  C
  C18      1.0000 0.86640  0.91340  0.77660  Biso   1.000  C
  C19      1.0000 0.36640  0.41340  0.72340  Biso   1.000  C
  C20      1.0000 0.13360  0.08660  0.22340  Biso   1.000  C
  H29      1.0000 0.57490  0.59970  0.23560  Biso   1.000  H
  H30      1.0000 0.92510  0.90030  0.73560  Biso   1.000  H
  H31      1.0000 0.42510  0.40030  0.76440  Biso   1.000  H
  H32      1.0000 0.07490  0.09970  0.26440  Biso   1.000  H
  C21      1.0000 0.53310  0.53380  0.33130  Biso   1.000  C
  C22      1.0000 0.96690  0.96620  0.83130  Biso   1.000  C
  C23      1.0000 0.46690  0.46620  0.66870  Biso   1.000  C
  C24      1.0000 0.03310  0.03380  0.16870  Biso   1.000  C
  C25      1.0000 0.62740  0.51680  0.39010  Biso   1.000  C
  C26      1.0000 0.87260  0.98320  0.89010  Biso   1.000  C
  C27      1.0000 0.37260  0.48320  0.60990  Biso   1.000  C
  C28      1.0000 0.12740  0.01680  0.10990  Biso   1.000  C
  H33      1.0000 0.56570  0.48010  0.42830  Biso   1.000  H
  H34      1.0000 0.93430  0.01990  0.92830  Biso   1.000  H
  H35      1.0000 0.43430  0.51990  0.57170  Biso   1.000  H
  H36      1.0000 0.06570  0.98010  0.07170  Biso   1.000  H
  C29      1.0000 0.81420  0.55460  0.39170  Biso   1.000  C
  C30      1.0000 0.68580  0.94540  0.89170  Biso   1.000  C
  C31      1.0000 0.18580  0.44540  0.60830  Biso   1.000  C
  C32      1.0000 0.31420  0.05460  0.10830  Biso   1.000  C
  H37      1.0000 0.87530  0.54330  0.43260  Biso   1.000  H
  H38      1.0000 0.62470  0.95670  0.93260  Biso   1.000  H
  H39      1.0000 0.12470  0.45670  0.56740  Biso   1.000  H
  H40      1.0000 0.37530  0.04330  0.06740  Biso   1.000  H
  C33      1.0000 0.79460  0.86300  0.36770  Biso   1.000  C
  C34      1.0000 0.70540  0.63700  0.86770  Biso   1.000  C
  C35      1.0000 0.20540  0.13700  0.63230  Biso   1.000  C
  C36      1.0000 0.29460  0.36300  0.13230  Biso   1.000  C
  H41      1.0000 0.77280  0.78920  0.35730  Biso   1.000  H
  H42      1.0000 0.72720  0.71080  0.85730  Biso   1.000  H
  H43      1.0000 0.22720  0.21080  0.64270  Biso   1.000  H
  H44      1.0000 0.27280  0.28920  0.14270  Biso   1.000  H
  C37      1.0000 0.96160  0.91440  0.38930  Biso   1.000  C
  C38      1.0000 0.53840  0.58560  0.88930  Biso   1.000  C
  C39      1.0000 0.03840  0.08560  0.61070  Biso   1.000  C
  C40      1.0000 0.46160  0.41440  0.11070  Biso   1.000  C
  H45      1.0000 0.05330  0.87560  0.39470  Biso   1.000  H
  H46      1.0000 0.44670  0.62440  0.89470  Biso   1.000  H
  H47      1.0000 0.94670  0.12440  0.60530  Biso   1.000  H
  H48      1.0000 0.55330  0.37560  0.10530  Biso   1.000  H
  C41      1.0000 0.99990  0.02620  0.40390  Biso   1.000  C
  C42      1.0000 0.50010  0.47380  0.90390  Biso   1.000  C
  C43      1.0000 0.00010  0.97380  0.59610  Biso   1.000  C
  C44      1.0000 0.49990  0.52620  0.09610  Biso   1.000  C
  C45      1.0000 0.85630  0.07930  0.39520  Biso   1.000  C
  C46      1.0000 0.64370  0.42070  0.89520  Biso   1.000  C
  C47      1.0000 0.14370  0.92070  0.60480  Biso   1.000  C
  C48      1.0000 0.35630  0.57930  0.10480  Biso   1.000  C
  H49      1.0000 0.87460  0.15340  0.40450  Biso   1.000  H
  H50      1.0000 0.62540  0.34660  0.90450  Biso   1.000  H
  H51      1.0000 0.12540  0.84660  0.59550  Biso   1.000  H
  H52      1.0000 0.37460  0.65340  0.09550  Biso   1.000  H
  C49      1.0000 0.68840  0.02260  0.37300  Biso   1.000  C
  C50      1.0000 0.81160  0.47740  0.87300  Biso   1.000  C
  C51      1.0000 0.31160  0.97740  0.62700  Biso   1.000  C
  C52      1.0000 0.18840  0.52260  0.12700  Biso   1.000  C
  H53      1.0000 0.59360  0.05880  0.36630  Biso   1.000  H
  H54      1.0000 0.90640  0.44120  0.86630  Biso   1.000  H
  H55      1.0000 0.40640  0.94120  0.63370  Biso   1.000  H
  H56      1.0000 0.09360  0.55880  0.13370  Biso   1.000  H
  Cu1      1.0000 0.19289  0.66109  0.34559  Biso   1.000  Cu
  Cu2      1.0000 0.30711  0.83891  0.84559  Biso   1.000  Cu
  Cu3      1.0000 0.80711  0.33891  0.65441  Biso   1.000  Cu
  Cu4      1.0000 0.69289  0.16109  0.15441  Biso   1.000  Cu
  I1       1.0000 0.29259  0.71330  0.47303  Biso   1.000  I
  I2       1.0000 0.20741  0.78670  0.97303  Biso   1.000  I
  I3       1.0000 0.70741  0.28670  0.52697  Biso   1.000  I
  I4       1.0000 0.79259  0.21330  0.02697  Biso   1.000  I
  I5       1.0000 0.29943  0.80035  0.24647  Biso   1.000  I
  I6       1.0000 0.20057  0.69965  0.74647  Biso   1.000  I
  I7       1.0000 0.70057  0.19965  0.75353  Biso   1.000  I
  I8       1.0000 0.79943  0.30035  0.25353  Biso   1.000  I
  N1       1.0000 0.91420  0.60570  0.34010  Biso   1.000  N
  N2       1.0000 0.58580  0.89430  0.84010  Biso   1.000  N
  N3       1.0000 0.08580  0.39430  0.65990  Biso   1.000  N
  N4       1.0000 0.41420  0.10570  0.15990  Biso   1.000  N
  N5       1.0000 0.65880  0.91550  0.36070  Biso   1.000  N
  N6       1.0000 0.84120  0.58450  0.86070  Biso   1.000  N
  N7       1.0000 0.34120  0.08450  0.63930  Biso   1.000  N
  N8       1.0000 0.15880  0.41550  0.13930  Biso   1.000  N
  S1       1.0000 0.29280  0.49639  0.31947  Biso   1.000  S
  S2       1.0000 0.20720  0.00361  0.81947  Biso   1.000  S
  S3       1.0000 0.70720  0.50361  0.68053  Biso   1.000  S
  S4       1.0000 0.79280  0.99639  0.18053  Biso   1.000  S
  S5       1.0000 0.21680  0.08499  0.43422  Biso   1.000  S
  S6       1.0000 0.28320  0.41501  0.93422  Biso   1.000  S
  S7       1.0000 0.78320  0.91501  0.56578  Biso   1.000  S
  S8       1.0000 0.71680  0.58499  0.06578  Biso   1.000  S
  Cu5      1.0000 0.44270  0.81160  0.35880  Biso   1.000  Cu
  Cu6      1.0000 0.05730  0.68840  0.85880  Biso   1.000  Cu
  Cu7      1.0000 0.55730  0.18840  0.64120  Biso   1.000  Cu
  Cu8      1.0000 0.94270  0.31160  0.14120  Biso   1.000  Cu
  H57      1.0000 0.55130  0.88040  0.34810  Biso   1.000  H
  H58      1.0000 0.94870  0.61960  0.84810  Biso   1.000  H
  H59      1.0000 0.44870  0.11960  0.65190  Biso   1.000  H
  H60      1.0000 0.05130  0.38040  0.15190  Biso   1.000  H
