data_image0
_cell_length_a       3.8226
_cell_length_b       10.488
_cell_length_c       19.033
_cell_angle_alpha    90
_cell_angle_beta     90
_cell_angle_gamma    90

_symmetry_space_group_name_H-M    "P 1"
_symmetry_int_tables_number       1

loop_
  _symmetry_equiv_pos_as_xyz
  'x, y, z'

loop_
  _atom_site_label
  _atom_site_occupancy
  _atom_site_fract_x
  _atom_site_fract_y
  _atom_site_fract_z
  _atom_site_thermal_displace_type
  _atom_site_B_iso_or_equiv
  _atom_site_type_symbol
  Cu1      1.0000 0.04140  0.14900  0.50225  Biso   1.000  Cu
  Cu2      1.0000 0.45860  0.85100  0.00225  Biso   1.000  Cu
  Cu3      1.0000 0.95860  0.64900  0.99775  Biso   1.000  Cu
  Cu4      1.0000 0.54140  0.35100  0.49775  Biso   1.000  Cu
  Cu5      1.0000 0.34960  0.67620  0.45383  Biso   1.000  Cu
  Cu6      1.0000 0.15040  0.32380  0.95383  Biso   1.000  Cu
  Cu7      1.0000 0.65040  0.17620  0.04617  Biso   1.000  Cu
  Cu8      1.0000 0.84960  0.82380  0.54617  Biso   1.000  Cu
  Cl1      1.0000 0.33370  0.91430  0.49249  Biso   1.000  Cl
  Cl2      1.0000 0.16630  0.08570  0.99249  Biso   1.000  Cl
  Cl3      1.0000 0.66630  0.41430  0.00751  Biso   1.000  Cl
  Cl4      1.0000 0.83370  0.58570  0.50751  Biso   1.000  Cl
  O1       1.0000 0.12800  0.16690  0.59950  Biso   1.000  O
  O2       1.0000 0.37200  0.83310  0.09950  Biso   1.000  O
  O3       1.0000 0.87200  0.66690  0.90050  Biso   1.000  O
  O4       1.0000 0.62800  0.33310  0.40050  Biso   1.000  O
  O5       1.0000 0.43300  0.34960  0.59510  Biso   1.000  O
  O6       1.0000 0.06700  0.65040  0.09510  Biso   1.000  O
  O7       1.0000 0.56700  0.84960  0.90490  Biso   1.000  O
  O8       1.0000 0.93300  0.15040  0.40490  Biso   1.000  O
  N1       1.0000 0.21900  0.29750  0.85170  Biso   1.000  N
  N2       1.0000 0.28100  0.70250  0.35170  Biso   1.000  N
  N3       1.0000 0.78100  0.79750  0.64830  Biso   1.000  N
  N4       1.0000 0.71900  0.20250  0.14830  Biso   1.000  N
  C1       1.0000 0.27300  0.26170  0.62670  Biso   1.000  C
  C2       1.0000 0.22700  0.73830  0.12670  Biso   1.000  C
  C3       1.0000 0.72700  0.76170  0.87330  Biso   1.000  C
  C4       1.0000 0.77300  0.23830  0.37330  Biso   1.000  C
  C5       1.0000 0.25300  0.27320  0.70660  Biso   1.000  C
  C6       1.0000 0.24700  0.72680  0.20660  Biso   1.000  C
  C7       1.0000 0.74700  0.77320  0.79340  Biso   1.000  C
  C8       1.0000 0.75300  0.22680  0.29340  Biso   1.000  C
  C9       1.0000 0.39100  0.38240  0.73970  Biso   1.000  C
  C10      1.0000 0.10900  0.61760  0.23970  Biso   1.000  C
  C11      1.0000 0.60900  0.88240  0.76030  Biso   1.000  C
  C12      1.0000 0.89100  0.11760  0.26030  Biso   1.000  C
  H1       1.0000 0.49740  0.44630  0.71340  Biso   1.000  H
  H2       1.0000 0.00260  0.55370  0.21340  Biso   1.000  H
  H3       1.0000 0.50260  0.94630  0.78660  Biso   1.000  H
  H4       1.0000 0.99740  0.05370  0.28660  Biso   1.000  H
  C13      1.0000 0.36400  0.39250  0.81180  Biso   1.000  C
  C14      1.0000 0.13600  0.60750  0.31180  Biso   1.000  C
  C15      1.0000 0.63600  0.89250  0.68820  Biso   1.000  C
  C16      1.0000 0.86400  0.10750  0.18820  Biso   1.000  C
  H5       1.0000 0.44620  0.46570  0.83390  Biso   1.000  H
  H6       1.0000 0.05380  0.53430  0.33390  Biso   1.000  H
  H7       1.0000 0.55380  0.96570  0.66610  Biso   1.000  H
  H8       1.0000 0.94620  0.03430  0.16610  Biso   1.000  H
  C17      1.0000 0.08700  0.19390  0.81920  Biso   1.000  C
  C18      1.0000 0.41300  0.80610  0.31920  Biso   1.000  C
  C19      1.0000 0.91300  0.69390  0.68080  Biso   1.000  C
  C20      1.0000 0.58700  0.30610  0.18080  Biso   1.000  C
  H9       1.0000 0.97870  0.13040  0.84550  Biso   1.000  H
  H10      1.0000 0.52130  0.86960  0.34550  Biso   1.000  H
  H11      1.0000 0.02130  0.63040  0.65450  Biso   1.000  H
  H12      1.0000 0.47870  0.36960  0.15450  Biso   1.000  H
  C21      1.0000 0.11000  0.18100  0.74680  Biso   1.000  C
  C22      1.0000 0.39000  0.81900  0.24680  Biso   1.000  C
  C23      1.0000 0.89000  0.68100  0.75320  Biso   1.000  C
  C24      1.0000 0.61000  0.31900  0.25320  Biso   1.000  C
  H13      1.0000 0.02460  0.10730  0.72550  Biso   1.000  H
  H14      1.0000 0.47540  0.89270  0.22550  Biso   1.000  H
  H15      1.0000 0.97540  0.60730  0.77450  Biso   1.000  H
  H16      1.0000 0.52460  0.39270  0.27450  Biso   1.000  H
