data_image0
_cell_length_a       14.556
_cell_length_b       18.019
_cell_length_c       22.378
_cell_angle_alpha    73.016
_cell_angle_beta     77.073
_cell_angle_gamma    75.469

_symmetry_space_group_name_H-M    "P 1"
_symmetry_int_tables_number       1

loop_
  _symmetry_equiv_pos_as_xyz
  'x, y, z'

loop_
  _atom_site_label
  _atom_site_occupancy
  _atom_site_fract_x
  _atom_site_fract_y
  _atom_site_fract_z
  _atom_site_thermal_displace_type
  _atom_site_B_iso_or_equiv
  _atom_site_type_symbol
  Er1      1.0000 0.06426  0.49403  0.59516  Biso   1.000  Er
  Er2      1.0000 0.93574  0.50597  0.40484  Biso   1.000  Er
  Er3      1.0000 0.24783  0.50938  0.74689  Biso   1.000  Er
  Er4      1.0000 0.75217  0.49062  0.25311  Biso   1.000  Er
  Er5      1.0000 0.40412  0.49383  0.92526  Biso   1.000  Er
  Er6      1.0000 0.59588  0.50617  0.07474  Biso   1.000  Er
  S1       1.0000 0.84930  0.83232  0.37816  Biso   1.000  S
  S2       1.0000 0.15070  0.16768  0.62184  Biso   1.000  S
  S3       1.0000 0.18300  0.74962  0.49042  Biso   1.000  S
  S4       1.0000 0.81700  0.25038  0.50958  Biso   1.000  S
  S5       1.0000 0.38695  0.61197  0.34381  Biso   1.000  S
  S6       1.0000 0.61305  0.38803  0.65619  Biso   1.000  S
  S7       1.0000 0.10230  0.82406  0.74512  Biso   1.000  S
  S8       1.0000 0.89770  0.17594  0.25488  Biso   1.000  S
  S9       1.0000 0.66523  0.63436  0.65119  Biso   1.000  S
  S10      1.0000 0.33477  0.36564  0.34881  Biso   1.000  S
  S11      1.0000 0.50439  0.24731  0.18087  Biso   1.000  S
  S12      1.0000 0.49561  0.75269  0.81913  Biso   1.000  S
  S13      1.0000 0.52435  0.17124  0.93638  Biso   1.000  S
  S14      1.0000 0.47565  0.82876  0.06362  Biso   1.000  S
  S15      1.0000 0.16236  0.24877  0.84878  Biso   1.000  S
  S16      1.0000 0.83764  0.75123  0.15122  Biso   1.000  S
  S17      1.0000 0.97637  0.36018  0.01194  Biso   1.000  S
  S18      1.0000 0.02363  0.63982  0.98806  Biso   1.000  S
  O1       1.0000 0.91319  0.45462  0.61570  Biso   1.000  O
  O2       1.0000 0.08681  0.54538  0.38430  Biso   1.000  O
  H1       1.0000 0.89970  0.45320  0.58240  Biso   1.000  H
  H2       1.0000 0.10030  0.54680  0.41760  Biso   1.000  H
  O3       1.0000 0.97792  0.50621  0.69760  Biso   1.000  O
  O4       1.0000 0.02208  0.49379  0.30240  Biso   1.000  O
  H3       1.0000 0.96010  0.46470  0.71710  Biso   1.000  H
  H4       1.0000 0.03990  0.53530  0.28290  Biso   1.000  H
  O5       1.0000 0.32463  0.50718  0.64293  Biso   1.000  O
  O6       1.0000 0.67537  0.49282  0.35707  Biso   1.000  O
  H5       1.0000 0.35490  0.54300  0.62860  Biso   1.000  H
  H6       1.0000 0.64510  0.45700  0.37140  Biso   1.000  H
  O7       1.0000 0.38992  0.56027  0.72227  Biso   1.000  O
  O8       1.0000 0.61008  0.43973  0.27773  Biso   1.000  O
  H7       1.0000 0.40810  0.55750  0.75510  Biso   1.000  H
  H8       1.0000 0.59190  0.44250  0.24490  Biso   1.000  H
  O9       1.0000 0.32561  0.50455  0.02949  Biso   1.000  O
  O10      1.0000 0.67439  0.49545  0.97051  Biso   1.000  O
  H9       1.0000 0.30640  0.46360  0.04890  Biso   1.000  H
  H10      1.0000 0.69360  0.53640  0.95110  Biso   1.000  H
  O11      1.0000 0.25800  0.44769  0.95156  Biso   1.000  O
  O12      1.0000 0.74200  0.55231  0.04844  Biso   1.000  O
  H11      1.0000 0.24100  0.44740  0.91910  Biso   1.000  H
  H12      1.0000 0.75900  0.55260  0.08090  Biso   1.000  H
  O13      1.0000 0.96370  0.61023  0.55005  Biso   1.000  O
  O14      1.0000 0.03630  0.38977  0.44995  Biso   1.000  O
  O15      1.0000 0.92612  0.58863  0.46699  Biso   1.000  O
  O16      1.0000 0.07388  0.41137  0.53301  Biso   1.000  O
  O17      1.0000 0.78460  0.84782  0.33462  Biso   1.000  O
  O18      1.0000 0.21540  0.15218  0.66538  Biso   1.000  O
  O19      1.0000 0.83210  0.88285  0.42007  Biso   1.000  O
  O20      1.0000 0.16790  0.11715  0.57993  Biso   1.000  O
  O21      1.0000 0.14903  0.55429  0.49171  Biso   1.000  O
  O22      1.0000 0.85097  0.44571  0.50829  Biso   1.000  O
  O23      1.0000 0.24037  0.47139  0.55793  Biso   1.000  O
  O24      1.0000 0.75963  0.52861  0.44207  Biso   1.000  O
  O25      1.0000 0.34730  0.65740  0.28927  Biso   1.000  O
  O26      1.0000 0.65270  0.34260  0.71073  Biso   1.000  O
  O27      1.0000 0.45710  0.54080  0.34160  Biso   1.000  O
  O28      1.0000 0.54290  0.45920  0.65840  Biso   1.000  O
  O29      1.0000 0.12133  0.58164  0.62498  Biso   1.000  O
  O30      1.0000 0.87867  0.41836  0.37502  Biso   1.000  O
  O31      1.0000 0.17033  0.63101  0.68869  Biso   1.000  O
  O32      1.0000 0.82967  0.36899  0.31131  Biso   1.000  O
  O33      1.0000 0.17480  0.73187  0.43362  Biso   1.000  O
  O34      1.0000 0.82520  0.26813  0.56638  Biso   1.000  O
  O35      1.0000 0.26740  0.71400  0.51744  Biso   1.000  O
  O36      1.0000 0.73260  0.28600  0.48256  Biso   1.000  O
  O37      1.0000 0.23627  0.58712  0.81425  Biso   1.000  O
  O38      1.0000 0.76373  0.41288  0.18575  Biso   1.000  O
  O39      1.0000 0.29485  0.60978  0.88881  Biso   1.000  O
  O40      1.0000 0.70515  0.39022  0.11119  Biso   1.000  O
  O41      1.0000 0.03940  0.82390  0.70437  Biso   1.000  O
  O42      1.0000 0.96060  0.17610  0.29563  Biso   1.000  O
  O43      1.0000 0.06840  0.87401  0.78757  Biso   1.000  O
  O44      1.0000 0.93160  0.12599  0.21243  Biso   1.000  O
  O45      1.0000 0.47317  0.56088  0.82195  Biso   1.000  O
  O46      1.0000 0.52683  0.43912  0.17805  Biso   1.000  O
  O47      1.0000 0.58151  0.47603  0.87426  Biso   1.000  O
  O48      1.0000 0.41849  0.52397  0.12574  Biso   1.000  O
  O49      1.0000 0.60470  0.67000  0.60314  Biso   1.000  O
  O50      1.0000 0.39530  0.33000  0.39686  Biso   1.000  O
  O51      1.0000 0.74370  0.57080  0.64138  Biso   1.000  O
  O52      1.0000 0.25630  0.42920  0.35862  Biso   1.000  O
  O53      1.0000 0.47978  0.37350  0.98426  Biso   1.000  O
  O54      1.0000 0.52022  0.62650  0.01574  Biso   1.000  O
  O55      1.0000 0.53181  0.42027  0.04835  Biso   1.000  O
  O56      1.0000 0.46819  0.57973  0.95165  Biso   1.000  O
  O57      1.0000 0.52920  0.26048  0.23472  Biso   1.000  O
  O58      1.0000 0.47080  0.73952  0.76528  Biso   1.000  O
  O59      1.0000 0.41340  0.28570  0.16353  Biso   1.000  O
  O60      1.0000 0.58660  0.71430  0.83647  Biso   1.000  O
  O61      1.0000 0.41260  0.41231  0.86230  Biso   1.000  O
  O62      1.0000 0.58740  0.58769  0.13770  Biso   1.000  O
  O63      1.0000 0.36025  0.39487  0.78261  Biso   1.000  O
  O64      1.0000 0.63975  0.60513  0.21739  Biso   1.000  O
  O65      1.0000 0.59240  0.16369  0.97598  Biso   1.000  O
  O66      1.0000 0.40760  0.83631  0.02402  Biso   1.000  O
  O67      1.0000 0.54570  0.12116  0.89410  Biso   1.000  O
  O68      1.0000 0.45430  0.87884  0.10590  Biso   1.000  O
  O69      1.0000 0.18883  0.42212  0.71722  Biso   1.000  O
  O70      1.0000 0.81117  0.57788  0.28278  Biso   1.000  O
  O71      1.0000 0.12999  0.37225  0.65801  Biso   1.000  O
  O72      1.0000 0.87001  0.62775  0.34199  Biso   1.000  O
  O73      1.0000 0.18520  0.26004  0.90426  Biso   1.000  O
  O74      1.0000 0.81480  0.73996  0.09574  Biso   1.000  O
  O75      1.0000 0.07170  0.28881  0.83035  Biso   1.000  O
  O76      1.0000 0.92830  0.71119  0.16965  Biso   1.000  O
  O77      1.0000 0.17852  0.43928  0.84961  Biso   1.000  O
  O78      1.0000 0.82148  0.56072  0.15039  Biso   1.000  O
  O79      1.0000 0.07343  0.52455  0.79360  Biso   1.000  O
  O80      1.0000 0.92657  0.47545  0.20640  Biso   1.000  O
  O81      1.0000 0.03180  0.31910  0.06234  Biso   1.000  O
  O82      1.0000 0.96820  0.68090  0.93766  Biso   1.000  O
  O83      1.0000 0.89710  0.42280  0.02214  Biso   1.000  O
  O84      1.0000 0.10290  0.57720  0.97786  Biso   1.000  O
  N1       1.0000 0.84890  0.74400  0.42163  Biso   1.000  N
  N2       1.0000 0.15110  0.25600  0.57837  Biso   1.000  N
  H13      1.0000 0.82690  0.71180  0.40930  Biso   1.000  H
  H14      1.0000 0.17310  0.28820  0.59070  Biso   1.000  H
  N3       1.0000 0.29910  0.58780  0.39874  Biso   1.000  N
  N4       1.0000 0.70090  0.41220  0.60126  Biso   1.000  N
  H15      1.0000 0.24060  0.60650  0.39270  Biso   1.000  H
  H16      1.0000 0.75940  0.39350  0.60730  Biso   1.000  H
  N5       1.0000 0.08940  0.72890  0.54070  Biso   1.000  N
  N6       1.0000 0.91060  0.27110  0.45930  Biso   1.000  N
  H17      1.0000 0.04050  0.72270  0.52840  Biso   1.000  H
  H18      1.0000 0.95950  0.27730  0.47160  Biso   1.000  H
  N7       1.0000 0.12910  0.73400  0.78565  Biso   1.000  N
  N8       1.0000 0.87090  0.26600  0.21435  Biso   1.000  N
  H19      1.0000 0.10600  0.69740  0.78030  Biso   1.000  H
  H20      1.0000 0.89400  0.30260  0.21970  Biso   1.000  H
  N9       1.0000 0.59590  0.60130  0.71513  Biso   1.000  N
  N10      1.0000 0.40410  0.39870  0.28487  Biso   1.000  N
  H21      1.0000 0.53460  0.61340  0.71670  Biso   1.000  H
  H22      1.0000 0.46540  0.38660  0.28330  Biso   1.000  H
  N11      1.0000 0.58890  0.26940  0.12310  Biso   1.000  N
  N12      1.0000 0.41110  0.73060  0.87690  Biso   1.000  N
  H23      1.0000 0.64290  0.27390  0.12990  Biso   1.000  H
  H24      1.0000 0.35710  0.72610  0.87010  Biso   1.000  H
  N13      1.0000 0.50910  0.26180  0.89366  Biso   1.000  N
  N14      1.0000 0.49090  0.73820  0.10634  Biso   1.000  N
  H25      1.0000 0.53400  0.29590  0.90130  Biso   1.000  H
  H26      1.0000 0.46600  0.70410  0.09870  Biso   1.000  H
  N15      1.0000 0.24890  0.27200  0.79143  Biso   1.000  N
  N16      1.0000 0.75110  0.72800  0.20857  Biso   1.000  N
  H27      1.0000 0.30210  0.27700  0.79910  Biso   1.000  H
  H28      1.0000 0.69790  0.72300  0.20090  Biso   1.000  H
  N17      1.0000 0.04950  0.39710  0.95111  Biso   1.000  N
  N18      1.0000 0.95050  0.60290  0.04889  Biso   1.000  N
  H29      1.0000 0.11040  0.38550  0.95170  Biso   1.000  H
  H30      1.0000 0.88960  0.61450  0.04830  Biso   1.000  H
  C1       1.0000 0.92760  0.63170  0.50032  Biso   1.000  C
  C2       1.0000 0.07240  0.36830  0.49968  Biso   1.000  C
  C3       1.0000 0.88500  0.71760  0.48140  Biso   1.000  C
  C4       1.0000 0.11500  0.28240  0.51860  Biso   1.000  C
  H31      1.0000 0.83250  0.73020  0.51450  Biso   1.000  H
  H32      1.0000 0.16750  0.26980  0.48550  Biso   1.000  H
  H33      1.0000 0.93330  0.74740  0.47880  Biso   1.000  H
  H34      1.0000 0.06670  0.25260  0.52120  Biso   1.000  H
  C5       1.0000 0.96530  0.83560  0.33420  Biso   1.000  C
  C6       1.0000 0.03470  0.16440  0.66580  Biso   1.000  C
  C7       1.0000 0.99370  0.90780  0.31390  Biso   1.000  C
  C8       1.0000 0.00630  0.09220  0.68610  Biso   1.000  C
  H35      1.0000 0.95360  0.95240  0.32510  Biso   1.000  H
  H36      1.0000 0.04640  0.04760  0.67490  Biso   1.000  H
  C9       1.0000 0.08240  0.91240  0.27690  Biso   1.000  C
  C10      1.0000 0.91760  0.08760  0.72310  Biso   1.000  C
  H37      1.0000 0.10110  0.96110  0.26370  Biso   1.000  H
  H38      1.0000 0.89890  0.03890  0.73630  Biso   1.000  H
  C11      1.0000 0.14460  0.84940  0.25820  Biso   1.000  C
  C12      1.0000 0.85540  0.15060  0.74180  Biso   1.000  C
  C13      1.0000 0.11050  0.77820  0.28100  Biso   1.000  C
  C14      1.0000 0.88950  0.22180  0.71900  Biso   1.000  C
  H39      1.0000 0.15040  0.73310  0.27050  Biso   1.000  H
  H40      1.0000 0.84960  0.26690  0.72950  Biso   1.000  H
  C15      1.0000 0.02470  0.77060  0.31660  Biso   1.000  C
  C16      1.0000 0.97530  0.22940  0.68340  Biso   1.000  C
  H41      1.0000 0.00570  0.72210  0.32920  Biso   1.000  H
  H42      1.0000 0.99430  0.27790  0.67080  Biso   1.000  H
  C17      1.0000 0.24260  0.85800  0.21930  Biso   1.000  C
  C18      1.0000 0.75740  0.14200  0.78070  Biso   1.000  C
  H43      1.0000 0.24920  0.91220  0.20960  Biso   1.000  H
  H44      1.0000 0.75080  0.08780  0.79040  Biso   1.000  H
  H45      1.0000 0.24910  0.84280  0.18070  Biso   1.000  H
  H46      1.0000 0.75090  0.15720  0.81930  Biso   1.000  H
  H47      1.0000 0.29170  0.82460  0.24300  Biso   1.000  H
  H48      1.0000 0.70830  0.17540  0.75700  Biso   1.000  H
  C19      1.0000 0.23090  0.51940  0.50511  Biso   1.000  C
  C20      1.0000 0.76910  0.48060  0.49489  Biso   1.000  C
  C21      1.0000 0.32080  0.53340  0.45910  Biso   1.000  C
  C22      1.0000 0.67920  0.46660  0.54090  Biso   1.000  C
  H49      1.0000 0.35930  0.55530  0.47720  Biso   1.000  H
  H50      1.0000 0.64070  0.44470  0.52280  Biso   1.000  H
  H51      1.0000 0.35820  0.48330  0.45160  Biso   1.000  H
  H52      1.0000 0.64180  0.51670  0.54840  Biso   1.000  H
  C23      1.0000 0.43750  0.67410  0.36870  Biso   1.000  C
  C24      1.0000 0.56250  0.32590  0.63130  Biso   1.000  C
  C25      1.0000 0.39450  0.75430  0.36150  Biso   1.000  C
  C26      1.0000 0.60550  0.24570  0.63850  Biso   1.000  C
  H53      1.0000 0.34050  0.77640  0.34190  Biso   1.000  H
  H54      1.0000 0.65950  0.22360  0.65810  Biso   1.000  H
  C27      1.0000 0.43700  0.80060  0.38540  Biso   1.000  C
  C28      1.0000 0.56300  0.19940  0.61460  Biso   1.000  C
  H55      1.0000 0.40860  0.85360  0.38230  Biso   1.000  H
  H56      1.0000 0.59140  0.14640  0.61770  Biso   1.000  H
  C29      1.0000 0.51590  0.77070  0.41200  Biso   1.000  C
  C30      1.0000 0.48410  0.22930  0.58800  Biso   1.000  C
  C31      1.0000 0.55600  0.69400  0.41800  Biso   1.000  C
  C32      1.0000 0.44400  0.30600  0.58200  Biso   1.000  C
  H57      1.0000 0.61100  0.67300  0.43670  Biso   1.000  H
  H58      1.0000 0.38900  0.32700  0.56330  Biso   1.000  H
  C33      1.0000 0.51720  0.64520  0.39710  Biso   1.000  C
  C34      1.0000 0.48280  0.35480  0.60290  Biso   1.000  C
  H59      1.0000 0.54600  0.59190  0.40240  Biso   1.000  H
  H60      1.0000 0.45400  0.40810  0.59760  Biso   1.000  H
  C35      1.0000 0.55510  0.82540  0.43590  Biso   1.000  C
  C36      1.0000 0.44490  0.17460  0.56410  Biso   1.000  C
  H61      1.0000 0.51630  0.87770  0.42670  Biso   1.000  H
  H62      1.0000 0.48370  0.12230  0.57330  Biso   1.000  H
  H63      1.0000 0.62020  0.82690  0.41540  Biso   1.000  H
  H64      1.0000 0.37980  0.17310  0.58460  Biso   1.000  H
  H65      1.0000 0.55340  0.80610  0.48090  Biso   1.000  H
  H66      1.0000 0.44660  0.19390  0.51910  Biso   1.000  H
  C37      1.0000 0.13070  0.63830  0.64287  Biso   1.000  C
  C38      1.0000 0.86930  0.36170  0.35713  Biso   1.000  C
  C39      1.0000 0.08910  0.72090  0.60726  Biso   1.000  C
  C40      1.0000 0.91090  0.27910  0.39274  Biso   1.000  C
  H67      1.0000 0.02340  0.73600  0.62740  Biso   1.000  H
  H68      1.0000 0.97660  0.26400  0.37260  Biso   1.000  H
  H69      1.0000 0.12550  0.75740  0.61060  Biso   1.000  H
  H70      1.0000 0.87450  0.24260  0.38940  Biso   1.000  H
  C41      1.0000 0.16820  0.85290  0.47600  Biso   1.000  C
  C42      1.0000 0.83180  0.14710  0.52400  Biso   1.000  C
  C43      1.0000 0.10610  0.90010  0.43700  Biso   1.000  C
  C44      1.0000 0.89390  0.09990  0.56300  Biso   1.000  C
  H71      1.0000 0.07460  0.87770  0.41700  Biso   1.000  H
  H72      1.0000 0.92540  0.12230  0.58300  Biso   1.000  H
  C45      1.0000 0.08940  0.98230  0.42690  Biso   1.000  C
  C46      1.0000 0.91060  0.01770  0.57310  Biso   1.000  C
  H73      1.0000 0.04780  0.01410  0.39910  Biso   1.000  H
  H74      1.0000 0.95220  0.98590  0.60090  Biso   1.000  H
  C47      1.0000 0.13160  0.01650  0.45600  Biso   1.000  C
  C48      1.0000 0.86840  0.98350  0.54400  Biso   1.000  C
  C49      1.0000 0.19630  0.96880  0.49420  Biso   1.000  C
  C50      1.0000 0.80370  0.03120  0.50580  Biso   1.000  C
  H75      1.0000 0.22910  0.99140  0.51320  Biso   1.000  H
  H76      1.0000 0.77090  0.00860  0.48680  Biso   1.000  H
  C51      1.0000 0.21330  0.88690  0.50470  Biso   1.000  C
  C52      1.0000 0.78670  0.11310  0.49530  Biso   1.000  C
  H77      1.0000 0.25610  0.85520  0.53150  Biso   1.000  H
  H78      1.0000 0.74390  0.14480  0.46850  Biso   1.000  H
  C53      1.0000 0.10970  0.10560  0.44610  Biso   1.000  C
  C54      1.0000 0.89030  0.89440  0.55390  Biso   1.000  C
  H79      1.0000 0.14630  0.11960  0.47050  Biso   1.000  H
  H80      1.0000 0.85370  0.88040  0.52950  Biso   1.000  H
  H81      1.0000 0.04230  0.12330  0.45960  Biso   1.000  H
  H82      1.0000 0.95770  0.87670  0.54040  Biso   1.000  H
  H83      1.0000 0.12660  0.13030  0.40210  Biso   1.000  H
  H84      1.0000 0.87340  0.86970  0.59790  Biso   1.000  H
  C55      1.0000 0.24470  0.63050  0.84567  Biso   1.000  C
  C56      1.0000 0.75530  0.36950  0.15433  Biso   1.000  C
  C57      1.0000 0.19340  0.71570  0.83173  Biso   1.000  C
  C58      1.0000 0.80660  0.28430  0.16827  Biso   1.000  C
  H85      1.0000 0.15650  0.72760  0.87080  Biso   1.000  H
  H86      1.0000 0.84350  0.27240  0.12920  Biso   1.000  H
  H87      1.0000 0.24070  0.74930  0.81570  Biso   1.000  H
  H88      1.0000 0.75930  0.25070  0.18430  Biso   1.000  H
  C59      1.0000 0.21190  0.84980  0.69760  Biso   1.000  C
  C60      1.0000 0.78810  0.15020  0.30240  Biso   1.000  C
  C61      1.0000 0.28140  0.79520  0.67090  Biso   1.000  C
  C62      1.0000 0.71860  0.20480  0.32910  Biso   1.000  C
  H89      1.0000 0.27440  0.74300  0.67960  Biso   1.000  H
  H90      1.0000 0.72560  0.25700  0.32040  Biso   1.000  H
  C63      1.0000 0.36070  0.81960  0.63160  Biso   1.000  C
  C64      1.0000 0.63930  0.18040  0.36840  Biso   1.000  C
  H91      1.0000 0.40900  0.78300  0.61470  Biso   1.000  H
  H92      1.0000 0.59100  0.21700  0.38530  Biso   1.000  H
  C65      1.0000 0.37060  0.89910  0.61620  Biso   1.000  C
  C66      1.0000 0.62940  0.10090  0.38380  Biso   1.000  C
  C67      1.0000 0.29990  0.95070  0.64450  Biso   1.000  C
  C68      1.0000 0.70010  0.04930  0.35550  Biso   1.000  C
  H93      1.0000 0.30600  0.00320  0.63590  Biso   1.000  H
  H94      1.0000 0.69400  0.99680  0.36410  Biso   1.000  H
  C69      1.0000 0.22270  0.92760  0.68420  Biso   1.000  C
  C70      1.0000 0.77730  0.07240  0.31580  Biso   1.000  C
  H95      1.0000 0.17630  0.96380  0.70270  Biso   1.000  H
  H96      1.0000 0.82370  0.03620  0.29730  Biso   1.000  H
  C71      1.0000 0.45680  0.92730  0.57080  Biso   1.000  C
  C72      1.0000 0.54320  0.07270  0.42920  Biso   1.000  C
  H97      1.0000 0.45070  0.98290  0.56620  Biso   1.000  H
  H98      1.0000 0.54930  0.01710  0.43380  Biso   1.000  H
  H99      1.0000 0.45940  0.91800  0.53030  Biso   1.000  H
  H100     1.0000 0.54060  0.08200  0.46970  Biso   1.000  H
  H101     1.0000 0.51470  0.89880  0.58730  Biso   1.000  H
  H102     1.0000 0.48530  0.10120  0.41270  Biso   1.000  H
  C73      1.0000 0.55960  0.52740  0.82552  Biso   1.000  C
  C74      1.0000 0.44040  0.47260  0.17448  Biso   1.000  C
  C75      1.0000 0.63710  0.55120  0.77010  Biso   1.000  C
  C76      1.0000 0.36290  0.44880  0.22990  Biso   1.000  C
  H103     1.0000 0.67600  0.57920  0.78220  Biso   1.000  H
  H104     1.0000 0.32400  0.42080  0.21780  Biso   1.000  H
  H105     1.0000 0.67860  0.50400  0.75950  Biso   1.000  H
  H106     1.0000 0.32140  0.49600  0.24050  Biso   1.000  H
  C77      1.0000 0.70680  0.70990  0.66460  Biso   1.000  C
  C78      1.0000 0.29320  0.29010  0.33540  Biso   1.000  C
  C79      1.0000 0.65010  0.78410  0.65740  Biso   1.000  C
  C80      1.0000 0.34990  0.21590  0.34260  Biso   1.000  C
  H107     1.0000 0.59490  0.79540  0.63930  Biso   1.000  H
  H108     1.0000 0.40510  0.20460  0.36070  Biso   1.000  H
  C81      1.0000 0.67390  0.84310  0.67670  Biso   1.000  C
  C82      1.0000 0.32610  0.15690  0.32330  Biso   1.000  C
  H109     1.0000 0.63440  0.89300  0.67220  Biso   1.000  H
  H110     1.0000 0.36560  0.10700  0.32780  Biso   1.000  H
  C83      1.0000 0.75740  0.82620  0.70260  Biso   1.000  C
  C84      1.0000 0.24260  0.17380  0.29740  Biso   1.000  C
  C85      1.0000 0.81430  0.75210  0.70890  Biso   1.000  C
  C86      1.0000 0.18570  0.24790  0.29110  Biso   1.000  C
  H111     1.0000 0.87040  0.74090  0.72590  Biso   1.000  H
  H112     1.0000 0.12960  0.25910  0.27410  Biso   1.000  H
  C87      1.0000 0.78970  0.69330  0.69020  Biso   1.000  C
  C88      1.0000 0.21030  0.30670  0.30980  Biso   1.000  C
  H113     1.0000 0.82900  0.64330  0.69490  Biso   1.000  H
  H114     1.0000 0.17100  0.35670  0.30510  Biso   1.000  H
  C89      1.0000 0.78140  0.88980  0.72370  Biso   1.000  C
  C90      1.0000 0.21860  0.11020  0.27630  Biso   1.000  C
  H115     1.0000 0.84040  0.86980  0.74070  Biso   1.000  H
  H116     1.0000 0.15960  0.13020  0.25930  Biso   1.000  H
  H117     1.0000 0.73050  0.90590  0.75570  Biso   1.000  H
  H118     1.0000 0.26950  0.09410  0.24430  Biso   1.000  H
  H119     1.0000 0.78880  0.93440  0.68820  Biso   1.000  H
  H120     1.0000 0.21120  0.06560  0.31180  Biso   1.000  H
  C91      1.0000 0.52380  0.36430  0.02891  Biso   1.000  C
  C92      1.0000 0.47620  0.63570  0.97109  Biso   1.000  C
  C93      1.0000 0.57190  0.28170  0.05931  Biso   1.000  C
  C94      1.0000 0.42810  0.71830  0.94069  Biso   1.000  C
  H121     1.0000 0.53240  0.24530  0.05990  Biso   1.000  H
  H122     1.0000 0.46760  0.75470  0.94010  Biso   1.000  H
  H123     1.0000 0.63310  0.26830  0.03300  Biso   1.000  H
  H124     1.0000 0.36690  0.73170  0.96700  Biso   1.000  H
  C95      1.0000 0.51410  0.14480  0.19300  Biso   1.000  C
  C96      1.0000 0.48590  0.85520  0.80700  Biso   1.000  C
  C97      1.0000 0.57650  0.09400  0.23220  Biso   1.000  C
  C98      1.0000 0.42350  0.90600  0.76780  Biso   1.000  C
  H125     1.0000 0.61230  0.11400  0.25120  Biso   1.000  H
  H126     1.0000 0.38770  0.88600  0.74880  Biso   1.000  H
  C99      1.0000 0.58550  0.01260  0.24290  Biso   1.000  C
  C100     1.0000 0.41450  0.98740  0.75710  Biso   1.000  C
  H127     1.0000 0.62720  0.97860  0.26970  Biso   1.000  H
  H128     1.0000 0.37280  0.02140  0.73030  Biso   1.000  H
  C101     1.0000 0.53500  0.98110  0.21550  Biso   1.000  C
  C102     1.0000 0.46500  0.01890  0.78450  Biso   1.000  C
  C103     1.0000 0.47130  0.03400  0.17700  Biso   1.000  C
  C104     1.0000 0.52870  0.96600  0.82300  Biso   1.000  C
  H129     1.0000 0.43480  0.01440  0.15830  Biso   1.000  H
  H130     1.0000 0.56520  0.98560  0.84170  Biso   1.000  H
  C105     1.0000 0.46120  0.11500  0.16610  Biso   1.000  C
  C106     1.0000 0.53880  0.88500  0.83390  Biso   1.000  C
  H131     1.0000 0.41810  0.14910  0.14030  Biso   1.000  H
  H132     1.0000 0.58190  0.85090  0.85970  Biso   1.000  H
  C107     1.0000 0.54760  0.89180  0.22740  Biso   1.000  C
  C108     1.0000 0.45240  0.10820  0.77260  Biso   1.000  C
  H133     1.0000 0.50710  0.88030  0.20430  Biso   1.000  H
  H134     1.0000 0.49290  0.11970  0.79570  Biso   1.000  H
  H135     1.0000 0.53030  0.86910  0.27190  Biso   1.000  H
  H136     1.0000 0.46970  0.13090  0.72810  Biso   1.000  H
  H137     1.0000 0.61360  0.86980  0.21360  Biso   1.000  H
  H138     1.0000 0.38640  0.13020  0.78640  Biso   1.000  H
  C109     1.0000 0.40620  0.37090  0.82849  Biso   1.000  C
  C110     1.0000 0.59380  0.62910  0.17151  Biso   1.000  C
  C111     1.0000 0.45320  0.28540  0.84250  Biso   1.000  C
  C112     1.0000 0.54680  0.71460  0.15750  Biso   1.000  C
  H139     1.0000 0.40410  0.25380  0.85350  Biso   1.000  H
  H140     1.0000 0.59590  0.74620  0.14650  Biso   1.000  H
  H141     1.0000 0.49520  0.27430  0.80450  Biso   1.000  H
  H142     1.0000 0.50480  0.72570  0.19550  Biso   1.000  H
  C113     1.0000 0.41260  0.15680  0.98520  Biso   1.000  C
  C114     1.0000 0.58740  0.84320  0.01480  Biso   1.000  C
  C115     1.0000 0.35120  0.21630  0.01050  Biso   1.000  C
  C116     1.0000 0.64880  0.78370  0.98950  Biso   1.000  C
  H143     1.0000 0.36530  0.26660  0.99970  Biso   1.000  H
  H144     1.0000 0.63470  0.73340  0.00030  Biso   1.000  H
  C117     1.0000 0.26950  0.20030  0.05160  Biso   1.000  C
  C118     1.0000 0.73050  0.79970  0.94840  Biso   1.000  C
  H145     1.0000 0.22710  0.24100  0.06720  Biso   1.000  H
  H146     1.0000 0.77290  0.75900  0.93280  Biso   1.000  H
  C119     1.0000 0.24800  0.12560  0.07080  Biso   1.000  C
  C120     1.0000 0.75200  0.87440  0.92920  Biso   1.000  C
  C121     1.0000 0.30970  0.06760  0.04540  Biso   1.000  C
  C122     1.0000 0.69030  0.93240  0.95460  Biso   1.000  C
  H147     1.0000 0.29620  0.01700  0.05740  Biso   1.000  H
  H148     1.0000 0.70380  0.98300  0.94260  Biso   1.000  H
  C123     1.0000 0.39140  0.08210  0.00240  Biso   1.000  C
  C124     1.0000 0.60860  0.91790  0.99760  Biso   1.000  C
  H149     1.0000 0.43190  0.04200  0.98530  Biso   1.000  H
  H150     1.0000 0.56810  0.95800  0.01470  Biso   1.000  H
  C125     1.0000 0.15790  0.10640  0.11870  Biso   1.000  C
  C126     1.0000 0.84210  0.89360  0.88130  Biso   1.000  C
  H151     1.0000 0.15620  0.05150  0.12570  Biso   1.000  H
  H152     1.0000 0.84380  0.94850  0.87430  Biso   1.000  H
  H153     1.0000 0.10140  0.13870  0.10220  Biso   1.000  H
  H154     1.0000 0.89860  0.86130  0.89780  Biso   1.000  H
  H155     1.0000 0.15990  0.11690  0.15800  Biso   1.000  H
  H156     1.0000 0.84010  0.88310  0.84200  Biso   1.000  H
  C127     1.0000 0.17950  0.36550  0.69879  Biso   1.000  C
  C128     1.0000 0.82050  0.63450  0.30121  Biso   1.000  C
  C129     1.0000 0.23440  0.28410  0.72731  Biso   1.000  C
  C130     1.0000 0.76560  0.71590  0.27269  Biso   1.000  C
  H157     1.0000 0.19990  0.24490  0.72650  Biso   1.000  H
  H158     1.0000 0.80010  0.75510  0.27350  Biso   1.000  H
  H159     1.0000 0.29670  0.27500  0.70090  Biso   1.000  H
  H160     1.0000 0.70330  0.72500  0.29910  Biso   1.000  H
  C131     1.0000 0.17180  0.14690  0.85817  Biso   1.000  C
  C132     1.0000 0.82820  0.85310  0.14183  Biso   1.000  C
  C133     1.0000 0.23860  0.09450  0.89300  Biso   1.000  C
  C134     1.0000 0.76140  0.90550  0.10700  Biso   1.000  C
  H161     1.0000 0.27670  0.11330  0.91120  Biso   1.000  H
  H162     1.0000 0.72330  0.88670  0.08880  Biso   1.000  H
  C135     1.0000 0.24940  0.01350  0.90100  Biso   1.000  C
  C136     1.0000 0.75060  0.98650  0.09900  Biso   1.000  C
  H163     1.0000 0.29470  0.97860  0.92470  Biso   1.000  H
  H164     1.0000 0.70530  0.02140  0.07530  Biso   1.000  H
  C137     1.0000 0.19450  0.98480  0.87480  Biso   1.000  C
  C138     1.0000 0.80550  0.01520  0.12520  Biso   1.000  C
  C139     1.0000 0.12680  0.03750  0.84080  Biso   1.000  C
  C140     1.0000 0.87320  0.96250  0.15920  Biso   1.000  C
  H165     1.0000 0.08830  0.01830  0.82330  Biso   1.000  H
  H166     1.0000 0.91170  0.98170  0.17670  Biso   1.000  H
  C141     1.0000 0.11460  0.11900  0.83200  Biso   1.000  C
  C142     1.0000 0.88540  0.88100  0.16800  Biso   1.000  C
  H167     1.0000 0.06860  0.15390  0.80890  Biso   1.000  H
  H168     1.0000 0.93140  0.84610  0.19110  Biso   1.000  H
  C143     1.0000 0.20890  0.89650  0.88240  Biso   1.000  C
  C144     1.0000 0.79110  0.10350  0.11760  Biso   1.000  C
  H169     1.0000 0.16490  0.88640  0.86090  Biso   1.000  H
  H170     1.0000 0.83510  0.11360  0.13910  Biso   1.000  H
  H171     1.0000 0.19730  0.87020  0.92660  Biso   1.000  H
  H172     1.0000 0.80270  0.12980  0.07340  Biso   1.000  H
  H173     1.0000 0.27370  0.87680  0.86450  Biso   1.000  H
  H174     1.0000 0.72630  0.12320  0.13550  Biso   1.000  H
  C145     1.0000 0.09270  0.47370  0.84276  Biso   1.000  C
  C146     1.0000 0.90730  0.52630  0.15724  Biso   1.000  C
  C147     1.0000 0.01190  0.45020  0.89540  Biso   1.000  C
  C148     1.0000 0.98810  0.54980  0.10460  Biso   1.000  C
  H175     1.0000 0.97070  0.49730  0.90640  Biso   1.000  H
  H176     1.0000 0.02930  0.50270  0.09360  Biso   1.000  H
  H177     1.0000 0.97340  0.42420  0.88090  Biso   1.000  H
  H178     1.0000 0.02660  0.57580  0.11910  Biso   1.000  H
  C149     1.0000 0.93720  0.28760  0.99230  Biso   1.000  C
  C150     1.0000 0.06280  0.71240  0.00770  Biso   1.000  C
  C151     1.0000 0.99480  0.21340  0.99680  Biso   1.000  C
  C152     1.0000 0.00520  0.78660  0.00320  Biso   1.000  C
  H179     1.0000 0.05140  0.20150  0.01340  Biso   1.000  H
  H180     1.0000 0.94860  0.79850  0.98660  Biso   1.000  H
  C153     1.0000 0.96980  0.15610  0.97700  Biso   1.000  C
  C154     1.0000 0.03020  0.84390  0.02300  Biso   1.000  C
  H181     1.0000 0.00940  0.10630  0.98040  Biso   1.000  H
  H182     1.0000 0.99060  0.89370  0.01960  Biso   1.000  H
  C155     1.0000 0.88540  0.17350  0.95220  Biso   1.000  C
  C156     1.0000 0.11460  0.82650  0.04780  Biso   1.000  C
  C157     1.0000 0.82870  0.24550  0.94740  Biso   1.000  C
  C158     1.0000 0.17130  0.75450  0.05260  Biso   1.000  C
  H183     1.0000 0.77190  0.25620  0.93110  Biso   1.000  H
  H184     1.0000 0.22810  0.74380  0.06890  Biso   1.000  H
  C159     1.0000 0.85230  0.30480  0.96620  Biso   1.000  C
  C160     1.0000 0.14770  0.69520  0.03380  Biso   1.000  C
  H185     1.0000 0.81280  0.35480  0.96160  Biso   1.000  H
  H186     1.0000 0.18720  0.64520  0.03840  Biso   1.000  H
  C161     1.0000 0.86030  0.10960  0.93150  Biso   1.000  C
  C162     1.0000 0.13970  0.89040  0.06850  Biso   1.000  C
  H187     1.0000 0.80060  0.12940  0.91550  Biso   1.000  H
  H188     1.0000 0.19940  0.87060  0.08450  Biso   1.000  H
  H189     1.0000 0.85420  0.06480  0.96700  Biso   1.000  H
  H190     1.0000 0.14580  0.93520  0.03300  Biso   1.000  H
  H191     1.0000 0.91030  0.09390  0.89890  Biso   1.000  H
  H192     1.0000 0.08970  0.90610  0.10110  Biso   1.000  H
  O85      1.0000 0.89980  0.38950  0.78536  Biso   1.000  O
  O86      1.0000 0.10020  0.61050  0.21464  Biso   1.000  O
  O87      1.0000 0.07390  0.35010  0.16989  Biso   1.000  O
  O88      1.0000 0.92610  0.64990  0.83011  Biso   1.000  O
  O89      1.0000 0.28190  0.64790  0.17754  Biso   1.000  O
  O90      1.0000 0.71810  0.35210  0.82246  Biso   1.000  O
  O91      1.0000 0.43720  0.61780  0.57070  Biso   1.000  O
  O92      1.0000 0.56280  0.38220  0.42930  Biso   1.000  O
  O93      1.0000 0.24730  0.38830  0.11550  Biso   1.000  O
  O94      1.0000 0.75270  0.61170  0.88450  Biso   1.000  O
