data_image0
_cell_length_a       8.9562
_cell_length_b       10.8383
_cell_length_c       11.6653
_cell_angle_alpha    79.758
_cell_angle_beta     77.216
_cell_angle_gamma    68.966

_symmetry_space_group_name_H-M    "P 1"
_symmetry_int_tables_number       1

loop_
  _symmetry_equiv_pos_as_xyz
  'x, y, z'

loop_
  _atom_site_label
  _atom_site_occupancy
  _atom_site_fract_x
  _atom_site_fract_y
  _atom_site_fract_z
  _atom_site_thermal_displace_type
  _atom_site_B_iso_or_equiv
  _atom_site_type_symbol
  Cu1      1.0000 0.13267  0.28597  0.17001  Biso   1.000  Cu
  Cu2      1.0000 0.86733  0.71403  0.82999  Biso   1.000  Cu
  Cu3      1.0000 0.47634  0.39759  0.12735  Biso   1.000  Cu
  Cu4      1.0000 0.52366  0.60241  0.87265  Biso   1.000  Cu
  C1       1.0000 0.15820  0.89880  0.19200  Biso   1.000  C
  C2       1.0000 0.84180  0.10120  0.80800  Biso   1.000  C
  C3       1.0000 0.12880  0.82230  0.29880  Biso   1.000  C
  C4       1.0000 0.87120  0.17770  0.70120  Biso   1.000  C
  C5       1.0000 0.08330  0.71220  0.29830  Biso   1.000  C
  C6       1.0000 0.91670  0.28780  0.70170  Biso   1.000  C
  H1       1.0000 0.06020  0.66320  0.36970  Biso   1.000  H
  H2       1.0000 0.93980  0.33680  0.63030  Biso   1.000  H
  C7       1.0000 0.07140  0.67370  0.19490  Biso   1.000  C
  C8       1.0000 0.92860  0.32630  0.80510  Biso   1.000  C
  C9       1.0000 0.10420  0.74810  0.08770  Biso   1.000  C
  C10      1.0000 0.89580  0.25190  0.91230  Biso   1.000  C
  C11      1.0000 0.14610  0.85960  0.08810  Biso   1.000  C
  C12      1.0000 0.85390  0.14040  0.91190  Biso   1.000  C
  H3       1.0000 0.16660  0.90960  0.01670  Biso   1.000  H
  H4       1.0000 0.83340  0.09040  0.98330  Biso   1.000  H
  C13      1.0000 0.19950  0.02470  0.17930  Biso   1.000  C
  C14      1.0000 0.80050  0.97530  0.82070  Biso   1.000  C
  C15      1.0000 0.16070  0.84660  0.41150  Biso   1.000  C
  C16      1.0000 0.83930  0.15340  0.58850  Biso   1.000  C
  C17      1.0000 0.04370  0.54340  0.20190  Biso   1.000  C
  C18      1.0000 0.95630  0.45660  0.79810  Biso   1.000  C
  C19      1.0000 0.09060  0.71820  0.96990  Biso   1.000  C
  C20      1.0000 0.90940  0.28180  0.03010  Biso   1.000  C
  C21      1.0000 0.25680  0.19120  0.39270  Biso   1.000  C
  C22      1.0000 0.74320  0.80880  0.60730  Biso   1.000  C
  H5       1.0000 0.18590  0.14280  0.41790  Biso   1.000  H
  H6       1.0000 0.81410  0.85720  0.58210  Biso   1.000  H
  C23      1.0000 0.43510  0.28280  0.38930  Biso   1.000  C
  C24      1.0000 0.56490  0.71720  0.61070  Biso   1.000  C
  H7       1.0000 0.51040  0.31020  0.41210  Biso   1.000  H
  H8       1.0000 0.48960  0.68980  0.58790  Biso   1.000  H
  C25      1.0000 0.35020  0.16080  0.58420  Biso   1.000  C
  C26      1.0000 0.64980  0.83920  0.41580  Biso   1.000  C
  C27      1.0000 0.30800  0.04930  0.62950  Biso   1.000  C
  C28      1.0000 0.69200  0.95070  0.37050  Biso   1.000  C
  H9       1.0000 0.28550  0.00100  0.58100  Biso   1.000  H
  H10      1.0000 0.71450  0.99900  0.41900  Biso   1.000  H
  C29      1.0000 0.30040  0.01190  0.74900  Biso   1.000  C
  C30      1.0000 0.69960  0.98810  0.25100  Biso   1.000  C
  H11      1.0000 0.27060  0.93810  0.78330  Biso   1.000  H
  H12      1.0000 0.72940  0.06190  0.21670  Biso   1.000  H
  C31      1.0000 0.33730  0.08480  0.81810  Biso   1.000  C
  C32      1.0000 0.66270  0.91520  0.18190  Biso   1.000  C
  H13      1.0000 0.33260  0.06220  0.89920  Biso   1.000  H
  H14      1.0000 0.66740  0.93780  0.10080  Biso   1.000  H
  C33      1.0000 0.38160  0.19280  0.76050  Biso   1.000  C
  C34      1.0000 0.61840  0.80720  0.23950  Biso   1.000  C
  C35      1.0000 0.43420  0.25190  0.94360  Biso   1.000  C
  C36      1.0000 0.56580  0.74810  0.05640  Biso   1.000  C
  H15      1.0000 0.41730  0.18080  0.99590  Biso   1.000  H
  H16      1.0000 0.58270  0.81920  0.00410  Biso   1.000  H
  C37      1.0000 0.45880  0.38390  0.78590  Biso   1.000  C
  C38      1.0000 0.54120  0.61610  0.21410  Biso   1.000  C
  H17      1.0000 0.46260  0.42180  0.70770  Biso   1.000  H
  H18      1.0000 0.53740  0.57820  0.29230  Biso   1.000  H
  N1       1.0000 0.28010  0.25190  0.28710  Biso   1.000  N
  N2       1.0000 0.71990  0.74810  0.71290  Biso   1.000  N
  N3       1.0000 0.39620  0.31000  0.28450  Biso   1.000  N
  N4       1.0000 0.60380  0.69000  0.71550  Biso   1.000  N
  N5       1.0000 0.35040  0.20850  0.46080  Biso   1.000  N
  N6       1.0000 0.64960  0.79150  0.53920  Biso   1.000  N
  N7       1.0000 0.38780  0.23390  0.64650  Biso   1.000  N
  N8       1.0000 0.61220  0.76610  0.35350  Biso   1.000  N
  N9       1.0000 0.42330  0.27120  0.82680  Biso   1.000  N
  N10      1.0000 0.57670  0.72880  0.17320  Biso   1.000  N
  N11      1.0000 0.47150  0.34610  0.97190  Biso   1.000  N
  N12      1.0000 0.52850  0.65390  0.02810  Biso   1.000  N
  N13      1.0000 0.48690  0.43270  0.86990  Biso   1.000  N
  N14      1.0000 0.51310  0.56730  0.13010  Biso   1.000  N
  O1       1.0000 0.09400  0.11920  0.23480  Biso   1.000  O
  O2       1.0000 0.90600  0.88080  0.76520  Biso   1.000  O
  O3       1.0000 0.32180  0.03220  0.10950  Biso   1.000  O
  O4       1.0000 0.67820  0.96780  0.89050  Biso   1.000  O
  O5       1.0000 0.25600  0.90040  0.41600  Biso   1.000  O
  O6       1.0000 0.74400  0.09960  0.58400  Biso   1.000  O
  O7       1.0000 0.08070  0.79610  0.50450  Biso   1.000  O
  O8       1.0000 0.91930  0.20390  0.49550  Biso   1.000  O
  H19      1.0000 0.12900  0.77980  0.56040  Biso   1.000  H
  H20      1.0000 0.87100  0.22020  0.43960  Biso   1.000  H
  O9       1.0000 0.93990  0.51630  0.28140  Biso   1.000  O
  O10      1.0000 0.06010  0.48370  0.71860  Biso   1.000  O
  O11      1.0000 0.14110  0.46410  0.12930  Biso   1.000  O
  O12      1.0000 0.85890  0.53590  0.87070  Biso   1.000  O
  O13      1.0000 0.95670  0.70260  0.96810  Biso   1.000  O
  O14      1.0000 0.04330  0.29740  0.03190  Biso   1.000  O
  O15      1.0000 0.20200  0.72010  0.88580  Biso   1.000  O
  O16      1.0000 0.79800  0.27990  0.11420  Biso   1.000  O
  O17      1.0000 0.76950  0.34070  0.32970  Biso   1.000  O
  O18      1.0000 0.23050  0.65930  0.67030  Biso   1.000  O
  H21      1.0000 0.81600  0.38600  0.32200  Biso   1.000  H
  H22      1.0000 0.18400  0.61400  0.67800  Biso   1.000  H
  H23      1.0000 0.78000  0.31600  0.27000  Biso   1.000  H
  H24      1.0000 0.22000  0.68400  0.73000  Biso   1.000  H
