data_image0
_cell_length_a       8.018
_cell_length_b       8.94
_cell_length_c       10.371
_cell_angle_alpha    101.86
_cell_angle_beta     95.59
_cell_angle_gamma    106.62

_symmetry_space_group_name_H-M    "P 1"
_symmetry_int_tables_number       1

loop_
  _symmetry_equiv_pos_as_xyz
  'x, y, z'

loop_
  _atom_site_label
  _atom_site_occupancy
  _atom_site_fract_x
  _atom_site_fract_y
  _atom_site_fract_z
  _atom_site_thermal_displace_type
  _atom_site_B_iso_or_equiv
  _atom_site_type_symbol
  Cu1      1.0000 0.41150  0.48210  0.35540  Biso   1.000  Cu
  Cu2      1.0000 0.58850  0.51790  0.64460  Biso   1.000  Cu
  Cu3      1.0000 0.54290  0.15130  0.10350  Biso   1.000  Cu
  Cu4      1.0000 0.45710  0.84870  0.89650  Biso   1.000  Cu
  Cl1      1.0000 0.65680  0.37160  0.25390  Biso   1.000  Cl
  Cl2      1.0000 0.34320  0.62840  0.74610  Biso   1.000  Cl
  Cl3      1.0000 0.71710  0.98520  0.02920  Biso   1.000  Cl
  Cl4      1.0000 0.28290  0.01480  0.97080  Biso   1.000  Cl
  O1       1.0000 0.41570  0.36070  0.49480  Biso   1.000  O
  O2       1.0000 0.58430  0.63930  0.50520  Biso   1.000  O
  O3       1.0000 0.14500  0.40800  0.91900  Biso   1.000  O
  O4       1.0000 0.85500  0.59200  0.08100  Biso   1.000  O
  O5       1.0000 0.34700  0.39000  0.01400  Biso   1.000  O
  O6       1.0000 0.65300  0.61000  0.98600  Biso   1.000  O
  N1       1.0000 0.20600  0.31460  0.24350  Biso   1.000  N
  N2       1.0000 0.79400  0.68540  0.75650  Biso   1.000  N
  N3       1.0000 0.41400  0.64610  0.25200  Biso   1.000  N
  N4       1.0000 0.58600  0.35390  0.74800  Biso   1.000  N
  C1       1.0000 0.51000  0.79200  0.29300  Biso   1.000  C
  C2       1.0000 0.49000  0.20800  0.70700  Biso   1.000  C
  C3       1.0000 0.63000  0.87200  0.41600  Biso   1.000  C
  C4       1.0000 0.37000  0.12800  0.58400  Biso   1.000  C
  C5       1.0000 0.33500  0.20600  0.48260  Biso   1.000  C
  C6       1.0000 0.66500  0.79400  0.51740  Biso   1.000  C
  C7       1.0000 0.21000  0.10900  0.36900  Biso   1.000  C
  C8       1.0000 0.79000  0.89100  0.63100  Biso   1.000  C
  C9       1.0000 0.12600  0.94300  0.35800  Biso   1.000  C
  C10      1.0000 0.87400  0.05700  0.64200  Biso   1.000  C
  C11      1.0000 0.16200  0.86900  0.45600  Biso   1.000  C
  C12      1.0000 0.83800  0.13100  0.54400  Biso   1.000  C
  C13      1.0000 0.71900  0.03700  0.43200  Biso   1.000  C
  C14      1.0000 0.28100  0.96300  0.56800  Biso   1.000  C
  C15      1.0000 0.06900  0.69200  0.44400  Biso   1.000  C
  C16      1.0000 0.93100  0.30800  0.55600  Biso   1.000  C
  C17      1.0000 0.14900  0.17100  0.26000  Biso   1.000  C
  C18      1.0000 0.85100  0.82900  0.74000  Biso   1.000  C
  C19      1.0000 0.10900  0.33700  0.12200  Biso   1.000  C
  C20      1.0000 0.89100  0.66300  0.87800  Biso   1.000  C
  C21      1.0000 0.22200  0.44800  0.05500  Biso   1.000  C
  C22      1.0000 0.77800  0.55200  0.94500  Biso   1.000  C
  C23      1.0000 0.23600  0.42300  0.04100  Biso   1.000  C
  C24      1.0000 0.76400  0.57700  0.95900  Biso   1.000  C
  C25      1.0000 0.30000  0.60600  0.12100  Biso   1.000  C
  C26      1.0000 0.70000  0.39400  0.87900  Biso   1.000  C
  H1       1.0000 0.03250  0.87150  0.26350  Biso   1.000  H
  H2       1.0000 0.96750  0.12850  0.73650  Biso   1.000  H
  H3       1.0000 0.04480  0.09350  0.18660  Biso   1.000  H
  H4       1.0000 0.95520  0.90650  0.81340  Biso   1.000  H
  H5       1.0000 0.50200  0.86100  0.22680  Biso   1.000  H
  H6       1.0000 0.49800  0.13900  0.77320  Biso   1.000  H
  H7       1.0000 0.69610  0.08590  0.36160  Biso   1.000  H
  H8       1.0000 0.30390  0.91410  0.63840  Biso   1.000  H
  H9       1.0000 0.15370  0.63700  0.44890  Biso   1.000  H
  H10      1.0000 0.84630  0.36300  0.55110  Biso   1.000  H
  H11      1.0000 0.00220  0.68070  0.51390  Biso   1.000  H
  H12      1.0000 0.99780  0.31930  0.48610  Biso   1.000  H
  H13      1.0000 0.99180  0.64670  0.36000  Biso   1.000  H
  H14      1.0000 0.00820  0.35330  0.64000  Biso   1.000  H
  H15      1.0000 0.04810  0.23500  0.06430  Biso   1.000  H
  H16      1.0000 0.95190  0.76500  0.93570  Biso   1.000  H
  H17      1.0000 0.02820  0.39180  0.14850  Biso   1.000  H
  H18      1.0000 0.97180  0.60820  0.85150  Biso   1.000  H
  H19      1.0000 0.19060  0.62140  0.13760  Biso   1.000  H
  H20      1.0000 0.80940  0.37860  0.86240  Biso   1.000  H
  H21      1.0000 0.35590  0.67910  0.07250  Biso   1.000  H
  H22      1.0000 0.64410  0.32090  0.92750  Biso   1.000  H
  H23      1.0000 0.31330  0.38800  0.05020  Biso   1.000  H
  H24      1.0000 0.68670  0.61200  0.94980  Biso   1.000  H
  H25      1.0000 0.19140  0.45150  0.95390  Biso   1.000  H
  H26      1.0000 0.80860  0.54850  0.04610  Biso   1.000  H
