data_image0
_cell_length_a       6.9724
_cell_length_b       17.8527
_cell_length_c       18.7357
_cell_angle_alpha    90
_cell_angle_beta     90
_cell_angle_gamma    90

_symmetry_space_group_name_H-M    "P 1"
_symmetry_int_tables_number       1

loop_
  _symmetry_equiv_pos_as_xyz
  'x, y, z'

loop_
  _atom_site_label
  _atom_site_occupancy
  _atom_site_fract_x
  _atom_site_fract_y
  _atom_site_fract_z
  _atom_site_thermal_displace_type
  _atom_site_B_iso_or_equiv
  _atom_site_type_symbol
  Cu1      1.0000 0.81724  0.53906  0.47109  Biso   1.000  Cu
  Cu2      1.0000 0.18276  0.96094  0.97109  Biso   1.000  Cu
  Cu3      1.0000 0.31724  0.46094  0.02891  Biso   1.000  Cu
  Cu4      1.0000 0.68276  0.03906  0.52891  Biso   1.000  Cu
  Cu5      1.0000 0.18276  0.46094  0.52891  Biso   1.000  Cu
  Cu6      1.0000 0.81724  0.03906  0.02891  Biso   1.000  Cu
  Cu7      1.0000 0.68276  0.53906  0.97109  Biso   1.000  Cu
  Cu8      1.0000 0.31724  0.96094  0.47109  Biso   1.000  Cu
  Cu9      1.0000 0.08924  0.70340  0.29040  Biso   1.000  Cu
  Cu10     1.0000 0.91076  0.79660  0.79040  Biso   1.000  Cu
  Cu11     1.0000 0.58924  0.29660  0.20960  Biso   1.000  Cu
  Cu12     1.0000 0.41076  0.20340  0.70960  Biso   1.000  Cu
  Cu13     1.0000 0.91076  0.29660  0.70960  Biso   1.000  Cu
  Cu14     1.0000 0.08924  0.20340  0.20960  Biso   1.000  Cu
  Cu15     1.0000 0.41076  0.70340  0.79040  Biso   1.000  Cu
  Cu16     1.0000 0.58924  0.79660  0.29040  Biso   1.000  Cu
  Cl1      1.0000 0.87080  0.78951  0.23529  Biso   1.000  Cl
  Cl2      1.0000 0.12920  0.71049  0.73529  Biso   1.000  Cl
  Cl3      1.0000 0.37080  0.21049  0.26471  Biso   1.000  Cl
  Cl4      1.0000 0.62920  0.28951  0.76471  Biso   1.000  Cl
  Cl5      1.0000 0.12920  0.21049  0.76471  Biso   1.000  Cl
  Cl6      1.0000 0.87080  0.28951  0.26471  Biso   1.000  Cl
  Cl7      1.0000 0.62920  0.78951  0.73529  Biso   1.000  Cl
  Cl8      1.0000 0.37080  0.71049  0.23529  Biso   1.000  Cl
  N1       1.0000 0.97100  0.64520  0.36250  Biso   1.000  N
  N2       1.0000 0.02900  0.85480  0.86250  Biso   1.000  N
  N3       1.0000 0.47100  0.35480  0.13750  Biso   1.000  N
  N4       1.0000 0.52900  0.14520  0.63750  Biso   1.000  N
  N5       1.0000 0.02900  0.35480  0.63750  Biso   1.000  N
  N6       1.0000 0.97100  0.14520  0.13750  Biso   1.000  N
  N7       1.0000 0.52900  0.64520  0.86250  Biso   1.000  N
  N8       1.0000 0.47100  0.85480  0.36250  Biso   1.000  N
  N9       1.0000 0.75440  0.53520  0.57670  Biso   1.000  N
  N10      1.0000 0.24560  0.96480  0.07670  Biso   1.000  N
  N11      1.0000 0.25440  0.46480  0.92330  Biso   1.000  N
  N12      1.0000 0.74560  0.03520  0.42330  Biso   1.000  N
  N13      1.0000 0.24560  0.46480  0.42330  Biso   1.000  N
  N14      1.0000 0.75440  0.03520  0.92330  Biso   1.000  N
  N15      1.0000 0.74560  0.53520  0.07670  Biso   1.000  N
  N16      1.0000 0.25440  0.96480  0.57670  Biso   1.000  N
  N17      1.0000 0.70570  0.43370  0.47620  Biso   1.000  N
  N18      1.0000 0.29430  0.06630  0.97620  Biso   1.000  N
  N19      1.0000 0.20570  0.56630  0.02380  Biso   1.000  N
  N20      1.0000 0.79430  0.93370  0.52380  Biso   1.000  N
  N21      1.0000 0.29430  0.56630  0.52380  Biso   1.000  N
  N22      1.0000 0.70570  0.93370  0.02380  Biso   1.000  N
  N23      1.0000 0.79430  0.43370  0.97620  Biso   1.000  N
  N24      1.0000 0.20570  0.06630  0.47620  Biso   1.000  N
  C1       1.0000 0.90620  0.60510  0.40430  Biso   1.000  C
  C2       1.0000 0.09380  0.89490  0.90430  Biso   1.000  C
  C3       1.0000 0.40620  0.39490  0.09570  Biso   1.000  C
  C4       1.0000 0.59380  0.10510  0.59570  Biso   1.000  C
  C5       1.0000 0.09380  0.39490  0.59570  Biso   1.000  C
  C6       1.0000 0.90620  0.10510  0.09570  Biso   1.000  C
  C7       1.0000 0.59380  0.60510  0.90430  Biso   1.000  C
  C8       1.0000 0.40620  0.89490  0.40430  Biso   1.000  C
  C9       1.0000 0.78330  0.58900  0.62520  Biso   1.000  C
  C10      1.0000 0.21670  0.91100  0.12520  Biso   1.000  C
  C11      1.0000 0.28330  0.41100  0.87480  Biso   1.000  C
  C12      1.0000 0.71670  0.08900  0.37480  Biso   1.000  C
  C13      1.0000 0.21670  0.41100  0.37480  Biso   1.000  C
  C14      1.0000 0.78330  0.08900  0.87480  Biso   1.000  C
  C15      1.0000 0.71670  0.58900  0.12520  Biso   1.000  C
  C16      1.0000 0.28330  0.91100  0.62520  Biso   1.000  C
  H1       1.0000 0.84790  0.63210  0.61110  Biso   1.000  H
  H2       1.0000 0.15210  0.86790  0.11110  Biso   1.000  H
  H3       1.0000 0.34790  0.36790  0.88890  Biso   1.000  H
  H4       1.0000 0.65210  0.13210  0.38890  Biso   1.000  H
  H5       1.0000 0.15210  0.36790  0.38890  Biso   1.000  H
  H6       1.0000 0.84790  0.13210  0.88890  Biso   1.000  H
  H7       1.0000 0.65210  0.63210  0.11110  Biso   1.000  H
  H8       1.0000 0.34790  0.86790  0.61110  Biso   1.000  H
  C17      1.0000 0.72210  0.58360  0.69480  Biso   1.000  C
  C18      1.0000 0.27790  0.91640  0.19480  Biso   1.000  C
  C19      1.0000 0.22210  0.41640  0.80520  Biso   1.000  C
  C20      1.0000 0.77790  0.08360  0.30520  Biso   1.000  C
  C21      1.0000 0.27790  0.41640  0.30520  Biso   1.000  C
  C22      1.0000 0.72210  0.08360  0.80520  Biso   1.000  C
  C23      1.0000 0.77790  0.58360  0.19480  Biso   1.000  C
  C24      1.0000 0.22210  0.91640  0.69480  Biso   1.000  C
  H9       1.0000 0.74630  0.62190  0.72720  Biso   1.000  H
  H10      1.0000 0.25370  0.87810  0.22720  Biso   1.000  H
  H11      1.0000 0.24630  0.37810  0.77280  Biso   1.000  H
  H12      1.0000 0.75370  0.12190  0.27280  Biso   1.000  H
  H13      1.0000 0.25370  0.37810  0.27280  Biso   1.000  H
  H14      1.0000 0.74630  0.12190  0.77280  Biso   1.000  H
  H15      1.0000 0.75370  0.62190  0.22720  Biso   1.000  H
  H16      1.0000 0.24630  0.87810  0.72720  Biso   1.000  H
  C25      1.0000 0.62480  0.52070  0.71530  Biso   1.000  C
  C26      1.0000 0.37520  0.97930  0.21530  Biso   1.000  C
  C27      1.0000 0.12480  0.47930  0.78470  Biso   1.000  C
  C28      1.0000 0.87520  0.02070  0.28470  Biso   1.000  C
  C29      1.0000 0.37520  0.47930  0.28470  Biso   1.000  C
  C30      1.0000 0.62480  0.02070  0.78470  Biso   1.000  C
  C31      1.0000 0.87520  0.52070  0.21530  Biso   1.000  C
  C32      1.0000 0.12480  0.97930  0.71530  Biso   1.000  C
  H17      1.0000 0.58000  0.51600  0.76180  Biso   1.000  H
  H18      1.0000 0.42000  0.98400  0.26180  Biso   1.000  H
  H19      1.0000 0.08000  0.48400  0.73820  Biso   1.000  H
  H20      1.0000 0.92000  0.01600  0.23820  Biso   1.000  H
  H21      1.0000 0.42000  0.48400  0.23820  Biso   1.000  H
  H22      1.0000 0.58000  0.01600  0.73820  Biso   1.000  H
  H23      1.0000 0.92000  0.51600  0.26180  Biso   1.000  H
  H24      1.0000 0.08000  0.98400  0.76180  Biso   1.000  H
  C33      1.0000 0.59370  0.46420  0.66680  Biso   1.000  C
  C34      1.0000 0.40630  0.03580  0.16680  Biso   1.000  C
  C35      1.0000 0.09370  0.53580  0.83320  Biso   1.000  C
  C36      1.0000 0.90630  0.96420  0.33320  Biso   1.000  C
  C37      1.0000 0.40630  0.53580  0.33320  Biso   1.000  C
  C38      1.0000 0.59370  0.96420  0.83320  Biso   1.000  C
  C39      1.0000 0.90630  0.46420  0.16680  Biso   1.000  C
  C40      1.0000 0.09370  0.03580  0.66680  Biso   1.000  C
  H25      1.0000 0.52910  0.42080  0.68010  Biso   1.000  H
  H26      1.0000 0.47090  0.07920  0.18010  Biso   1.000  H
  H27      1.0000 0.02910  0.57920  0.81990  Biso   1.000  H
  H28      1.0000 0.97090  0.92080  0.31990  Biso   1.000  H
  H29      1.0000 0.47090  0.57920  0.31990  Biso   1.000  H
  H30      1.0000 0.52910  0.92080  0.81990  Biso   1.000  H
  H31      1.0000 0.97090  0.42080  0.18010  Biso   1.000  H
  H32      1.0000 0.02910  0.07920  0.68010  Biso   1.000  H
  C41      1.0000 0.56500  0.34440  0.55460  Biso   1.000  C
  C42      1.0000 0.43500  0.15560  0.05460  Biso   1.000  C
  C43      1.0000 0.06500  0.65560  0.94540  Biso   1.000  C
  C44      1.0000 0.93500  0.84440  0.44540  Biso   1.000  C
  C45      1.0000 0.43500  0.65560  0.44540  Biso   1.000  C
  C46      1.0000 0.56500  0.84440  0.94540  Biso   1.000  C
  C47      1.0000 0.93500  0.34440  0.05460  Biso   1.000  C
  C48      1.0000 0.06500  0.15560  0.55460  Biso   1.000  C
  H33      1.0000 0.52090  0.33170  0.59980  Biso   1.000  H
  H34      1.0000 0.47910  0.16830  0.09980  Biso   1.000  H
  H35      1.0000 0.02090  0.66830  0.90020  Biso   1.000  H
  H36      1.0000 0.97910  0.83170  0.40020  Biso   1.000  H
  H37      1.0000 0.47910  0.66830  0.40020  Biso   1.000  H
  H38      1.0000 0.52090  0.83170  0.90020  Biso   1.000  H
  H39      1.0000 0.97910  0.33170  0.09980  Biso   1.000  H
  H40      1.0000 0.02090  0.16830  0.59980  Biso   1.000  H
  C49      1.0000 0.55500  0.29340  0.49950  Biso   1.000  C
  C50      1.0000 0.44500  0.20660  0.99950  Biso   1.000  C
  C51      1.0000 0.05500  0.70660  0.00050  Biso   1.000  C
  C52      1.0000 0.94500  0.79340  0.50050  Biso   1.000  C
  C53      1.0000 0.44500  0.70660  0.50050  Biso   1.000  C
  C54      1.0000 0.55500  0.79340  0.00050  Biso   1.000  C
  C55      1.0000 0.94500  0.29340  0.99950  Biso   1.000  C
  C56      1.0000 0.05500  0.20660  0.49950  Biso   1.000  C
  H41      1.0000 0.50710  0.24560  0.50780  Biso   1.000  H
  H42      1.0000 0.49290  0.25440  0.00780  Biso   1.000  H
  H43      1.0000 0.00710  0.75440  0.99220  Biso   1.000  H
  H44      1.0000 0.99290  0.74560  0.49220  Biso   1.000  H
  H45      1.0000 0.49290  0.75440  0.49220  Biso   1.000  H
  H46      1.0000 0.50710  0.74560  0.99220  Biso   1.000  H
  H47      1.0000 0.99290  0.24560  0.00780  Biso   1.000  H
  H48      1.0000 0.00710  0.25440  0.50780  Biso   1.000  H
  C57      1.0000 0.61560  0.31300  0.43250  Biso   1.000  C
  C58      1.0000 0.38440  0.18700  0.93250  Biso   1.000  C
  C59      1.0000 0.11560  0.68700  0.06750  Biso   1.000  C
  C60      1.0000 0.88440  0.81300  0.56750  Biso   1.000  C
  C61      1.0000 0.38440  0.68700  0.56750  Biso   1.000  C
  C62      1.0000 0.61560  0.81300  0.06750  Biso   1.000  C
  C63      1.0000 0.88440  0.31300  0.93250  Biso   1.000  C
  C64      1.0000 0.11560  0.18700  0.43250  Biso   1.000  C
  H49      1.0000 0.60520  0.27980  0.39440  Biso   1.000  H
  H50      1.0000 0.39480  0.22020  0.89440  Biso   1.000  H
  H51      1.0000 0.10520  0.72020  0.10560  Biso   1.000  H
  H52      1.0000 0.89480  0.77980  0.60560  Biso   1.000  H
  H53      1.0000 0.39480  0.72020  0.60560  Biso   1.000  H
  H54      1.0000 0.60520  0.77980  0.10560  Biso   1.000  H
  H55      1.0000 0.89480  0.27980  0.89440  Biso   1.000  H
  H56      1.0000 0.10520  0.22020  0.39440  Biso   1.000  H
  C65      1.0000 0.69270  0.38380  0.42340  Biso   1.000  C
  C66      1.0000 0.30730  0.11620  0.92340  Biso   1.000  C
  C67      1.0000 0.19270  0.61620  0.07660  Biso   1.000  C
  C68      1.0000 0.80730  0.88380  0.57660  Biso   1.000  C
  C69      1.0000 0.30730  0.61620  0.57660  Biso   1.000  C
  C70      1.0000 0.69270  0.88380  0.07660  Biso   1.000  C
  C71      1.0000 0.80730  0.38380  0.92340  Biso   1.000  C
  C72      1.0000 0.19270  0.11620  0.42340  Biso   1.000  C
  H57      1.0000 0.73770  0.39710  0.37840  Biso   1.000  H
  H58      1.0000 0.26230  0.10290  0.87840  Biso   1.000  H
  H59      1.0000 0.23770  0.60290  0.12160  Biso   1.000  H
  H60      1.0000 0.76230  0.89710  0.62160  Biso   1.000  H
  H61      1.0000 0.26230  0.60290  0.62160  Biso   1.000  H
  H62      1.0000 0.73770  0.89710  0.12160  Biso   1.000  H
  H63      1.0000 0.76230  0.39710  0.87840  Biso   1.000  H
  H64      1.0000 0.23770  0.10290  0.37840  Biso   1.000  H
  C73      1.0000 0.66060  0.47310  0.59720  Biso   1.000  C
  C74      1.0000 0.33940  0.02690  0.09720  Biso   1.000  C
  C75      1.0000 0.16060  0.52690  0.90280  Biso   1.000  C
  C76      1.0000 0.83940  0.97310  0.40280  Biso   1.000  C
  C77      1.0000 0.33940  0.52690  0.40280  Biso   1.000  C
  C78      1.0000 0.66060  0.97310  0.90280  Biso   1.000  C
  C79      1.0000 0.83940  0.47310  0.09720  Biso   1.000  C
  C80      1.0000 0.16060  0.02690  0.59720  Biso   1.000  C
  C81      1.0000 0.64110  0.41440  0.54200  Biso   1.000  C
  C82      1.0000 0.35890  0.08560  0.04200  Biso   1.000  C
  C83      1.0000 0.14110  0.58560  0.95800  Biso   1.000  C
  C84      1.0000 0.85890  0.91440  0.45800  Biso   1.000  C
  C85      1.0000 0.35890  0.58560  0.45800  Biso   1.000  C
  C86      1.0000 0.64110  0.91440  0.95800  Biso   1.000  C
  C87      1.0000 0.85890  0.41440  0.04200  Biso   1.000  C
  C88      1.0000 0.14110  0.08560  0.54200  Biso   1.000  C
