data_image0
_cell_length_a       13.099
_cell_length_b       13.802
_cell_length_c       14.395
_cell_angle_alpha    90
_cell_angle_beta     90
_cell_angle_gamma    114.37

_symmetry_space_group_name_H-M    "P 1"
_symmetry_int_tables_number       1

loop_
  _symmetry_equiv_pos_as_xyz
  'x, y, z'

loop_
  _atom_site_label
  _atom_site_occupancy
  _atom_site_fract_x
  _atom_site_fract_y
  _atom_site_fract_z
  _atom_site_thermal_displace_type
  _atom_site_B_iso_or_equiv
  _atom_site_type_symbol
  I1       1.0000 0.09621  0.60274  0.10598  Biso   1.000  I
  I2       1.0000 0.40379  0.89726  0.60598  Biso   1.000  I
  I3       1.0000 0.90379  0.39726  0.89402  Biso   1.000  I
  I4       1.0000 0.59621  0.10274  0.39402  Biso   1.000  I
  I5       1.0000 0.23229  0.42963  0.88494  Biso   1.000  I
  I6       1.0000 0.26771  0.07037  0.38494  Biso   1.000  I
  I7       1.0000 0.76771  0.57037  0.11506  Biso   1.000  I
  I8       1.0000 0.73229  0.92963  0.61506  Biso   1.000  I
  I9       1.0000 0.55520  0.39882  0.89248  Biso   1.000  I
  I10      1.0000 0.94480  0.10118  0.39248  Biso   1.000  I
  I11      1.0000 0.44480  0.60118  0.10752  Biso   1.000  I
  I12      1.0000 0.05520  0.89882  0.60752  Biso   1.000  I
  Cu1      1.0000 0.15026  0.53009  0.50048  Biso   1.000  Cu
  Cu2      1.0000 0.34974  0.96991  0.00048  Biso   1.000  Cu
  Cu3      1.0000 0.84974  0.46991  0.49952  Biso   1.000  Cu
  Cu4      1.0000 0.65026  0.03009  0.99952  Biso   1.000  Cu
  Cu5      1.0000 0.50000  0.50000  0.50000  Biso   1.000  Cu
  Cu6      1.0000 0.00000  0.00000  0.00000  Biso   1.000  Cu
  O1       1.0000 0.27250  0.67350  0.46645  Biso   1.000  O
  O2       1.0000 0.22750  0.82650  0.96645  Biso   1.000  O
  O3       1.0000 0.72750  0.32650  0.53355  Biso   1.000  O
  O4       1.0000 0.77250  0.17350  0.03355  Biso   1.000  O
  O5       1.0000 0.99880  0.41180  0.52421  Biso   1.000  O
  O6       1.0000 0.50120  0.08820  0.02421  Biso   1.000  O
  O7       1.0000 0.00120  0.58820  0.47579  Biso   1.000  O
  O8       1.0000 0.49880  0.91180  0.97579  Biso   1.000  O
  O9       1.0000 0.63630  0.63860  0.49681  Biso   1.000  O
  O10      1.0000 0.86370  0.86140  0.99681  Biso   1.000  O
  O11      1.0000 0.36370  0.36140  0.50319  Biso   1.000  O
  O12      1.0000 0.13630  0.13860  0.00319  Biso   1.000  O
  O13      1.0000 0.45250  0.73420  0.44510  Biso   1.000  O
  O14      1.0000 0.04750  0.76580  0.94510  Biso   1.000  O
  O15      1.0000 0.54750  0.26580  0.55490  Biso   1.000  O
  O16      1.0000 0.95250  0.23420  0.05490  Biso   1.000  O
  O17      1.0000 0.91340  0.24390  0.55750  Biso   1.000  O
  O18      1.0000 0.58660  0.25610  0.05750  Biso   1.000  O
  O19      1.0000 0.08660  0.75610  0.44250  Biso   1.000  O
  O20      1.0000 0.41340  0.74390  0.94250  Biso   1.000  O
  O21      1.0000 0.74560  0.79610  0.45005  Biso   1.000  O
  O22      1.0000 0.75440  0.70390  0.95005  Biso   1.000  O
  O23      1.0000 0.25440  0.20390  0.54995  Biso   1.000  O
  O24      1.0000 0.24560  0.29610  0.04995  Biso   1.000  O
  O25      1.0000 0.35670  0.56920  0.48738  Biso   1.000  O
  O26      1.0000 0.14330  0.93080  0.98738  Biso   1.000  O
  O27      1.0000 0.64330  0.43080  0.51262  Biso   1.000  O
  O28      1.0000 0.85670  0.06920  0.01262  Biso   1.000  O
  O29      1.0000 0.09470  0.31890  0.55274  Biso   1.000  O
  O30      1.0000 0.40530  0.18110  0.05274  Biso   1.000  O
  O31      1.0000 0.90530  0.68110  0.44726  Biso   1.000  O
  O32      1.0000 0.59470  0.81890  0.94726  Biso   1.000  O
  O33      1.0000 0.69500  0.66500  0.35292  Biso   1.000  O
  O34      1.0000 0.80500  0.83500  0.85292  Biso   1.000  O
  O35      1.0000 0.30500  0.33500  0.64708  Biso   1.000  O
  O36      1.0000 0.19500  0.16500  0.14708  Biso   1.000  O
  N1       1.0000 0.14880  0.48410  0.36960  Biso   1.000  N
  N2       1.0000 0.35120  0.01590  0.86960  Biso   1.000  N
  N3       1.0000 0.85120  0.51590  0.63040  Biso   1.000  N
  N4       1.0000 0.64880  0.98410  0.13040  Biso   1.000  N
  N5       1.0000 0.16970  0.56710  0.63430  Biso   1.000  N
  N6       1.0000 0.33030  0.93290  0.13430  Biso   1.000  N
  N7       1.0000 0.83030  0.43290  0.36570  Biso   1.000  N
  N8       1.0000 0.66970  0.06710  0.86570  Biso   1.000  N
  N9       1.0000 0.51310  0.53580  0.63480  Biso   1.000  N
  N10      1.0000 0.98690  0.96420  0.13480  Biso   1.000  N
  N11      1.0000 0.48690  0.46420  0.36520  Biso   1.000  N
  N12      1.0000 0.01310  0.03580  0.86520  Biso   1.000  N
  N13      1.0000 0.36450  0.66040  0.46600  Biso   1.000  N
  N14      1.0000 0.13550  0.83960  0.96600  Biso   1.000  N
  N15      1.0000 0.63550  0.33960  0.53400  Biso   1.000  N
  N16      1.0000 0.86450  0.16040  0.03400  Biso   1.000  N
  N17      1.0000 0.00210  0.32070  0.54650  Biso   1.000  N
  N18      1.0000 0.49790  0.17930  0.04650  Biso   1.000  N
  N19      1.0000 0.99790  0.67930  0.45350  Biso   1.000  N
  N20      1.0000 0.50210  0.82070  0.95350  Biso   1.000  N
  N21      1.0000 0.69330  0.70130  0.43070  Biso   1.000  N
  N22      1.0000 0.80670  0.79870  0.93070  Biso   1.000  N
  N23      1.0000 0.30670  0.29870  0.56930  Biso   1.000  N
  N24      1.0000 0.19330  0.20130  0.06930  Biso   1.000  N
  C1       1.0000 0.12780  0.53960  0.30070  Biso   1.000  C
  C2       1.0000 0.37220  0.96040  0.80070  Biso   1.000  C
  C3       1.0000 0.87220  0.46040  0.69930  Biso   1.000  C
  C4       1.0000 0.62780  0.03960  0.19930  Biso   1.000  C
  H1       1.0000 0.11290  0.59943  0.31605  Biso   1.000  H
  H2       1.0000 0.38710  0.90057  0.81605  Biso   1.000  H
  H3       1.0000 0.88710  0.40057  0.68395  Biso   1.000  H
  H4       1.0000 0.61290  0.09943  0.18395  Biso   1.000  H
  C5       1.0000 0.19480  0.50830  0.69690  Biso   1.000  C
  C6       1.0000 0.30520  0.99170  0.19690  Biso   1.000  C
  C7       1.0000 0.80520  0.49170  0.30310  Biso   1.000  C
  C8       1.0000 0.69480  0.00830  0.80310  Biso   1.000  C
  H5       1.0000 0.20797  0.44913  0.67607  Biso   1.000  H
  H6       1.0000 0.29203  0.05087  0.17607  Biso   1.000  H
  H7       1.0000 0.79203  0.55087  0.32393  Biso   1.000  H
  H8       1.0000 0.70797  0.94913  0.82393  Biso   1.000  H
  C9       1.0000 0.52420  0.47190  0.70060  Biso   1.000  C
  C10      1.0000 0.97580  0.02810  0.20060  Biso   1.000  C
  C11      1.0000 0.47580  0.52810  0.29940  Biso   1.000  C
  C12      1.0000 0.02420  0.97190  0.79940  Biso   1.000  C
  H9       1.0000 0.52323  0.40512  0.68308  Biso   1.000  H
  H10      1.0000 0.97677  0.09488  0.18308  Biso   1.000  H
  H11      1.0000 0.47677  0.59488  0.31692  Biso   1.000  H
  H12      1.0000 0.02323  0.90512  0.81692  Biso   1.000  H
  C13      1.0000 0.12730  0.51200  0.20860  Biso   1.000  C
  C14      1.0000 0.37270  0.98800  0.70860  Biso   1.000  C
  C15      1.0000 0.87270  0.48800  0.79140  Biso   1.000  C
  C16      1.0000 0.62730  0.01200  0.29140  Biso   1.000  C
  C17      1.0000 0.20210  0.53090  0.79020  Biso   1.000  C
  C18      1.0000 0.29790  0.96910  0.29020  Biso   1.000  C
  C19      1.0000 0.79790  0.46910  0.20980  Biso   1.000  C
  C20      1.0000 0.70210  0.03090  0.70980  Biso   1.000  C
  C21      1.0000 0.53700  0.50070  0.79280  Biso   1.000  C
  C22      1.0000 0.96300  0.99930  0.29280  Biso   1.000  C
  C23      1.0000 0.46300  0.49930  0.20720  Biso   1.000  C
  C24      1.0000 0.03700  0.00070  0.70720  Biso   1.000  C
  C25      1.0000 0.15150  0.42620  0.18550  Biso   1.000  C
  C26      1.0000 0.34850  0.07380  0.68550  Biso   1.000  C
  C27      1.0000 0.84850  0.57380  0.81450  Biso   1.000  C
  C28      1.0000 0.65150  0.92620  0.31450  Biso   1.000  C
  H13      1.0000 0.15258  0.40623  0.12250  Biso   1.000  H
  H14      1.0000 0.34742  0.09377  0.62250  Biso   1.000  H
  H15      1.0000 0.84742  0.59377  0.87750  Biso   1.000  H
  H16      1.0000 0.65258  0.90623  0.37750  Biso   1.000  H
  C29      1.0000 0.18530  0.61790  0.82170  Biso   1.000  C
  C30      1.0000 0.31470  0.88210  0.32170  Biso   1.000  C
  C31      1.0000 0.81470  0.38210  0.17830  Biso   1.000  C
  C32      1.0000 0.68530  0.11790  0.67830  Biso   1.000  C
  H17      1.0000 0.19119  0.63528  0.88592  Biso   1.000  H
  H18      1.0000 0.30881  0.86472  0.38592  Biso   1.000  H
  H19      1.0000 0.80881  0.36472  0.11408  Biso   1.000  H
  H20      1.0000 0.69119  0.13528  0.61408  Biso   1.000  H
  C33      1.0000 0.53750  0.59720  0.82000  Biso   1.000  C
  C34      1.0000 0.96250  0.90280  0.32000  Biso   1.000  C
  C35      1.0000 0.46250  0.40280  0.18000  Biso   1.000  C
  C36      1.0000 0.03750  0.09720  0.68000  Biso   1.000  C
  H21      1.0000 0.54567  0.61791  0.88346  Biso   1.000  H
  H22      1.0000 0.95433  0.88209  0.38346  Biso   1.000  H
  H23      1.0000 0.45433  0.38209  0.11654  Biso   1.000  H
  H24      1.0000 0.04567  0.11791  0.61654  Biso   1.000  H
  C37      1.0000 0.17400  0.37040  0.25650  Biso   1.000  C
  C38      1.0000 0.32600  0.12960  0.75650  Biso   1.000  C
  C39      1.0000 0.82600  0.62960  0.74350  Biso   1.000  C
  C40      1.0000 0.67400  0.87040  0.24350  Biso   1.000  C
  H25      1.0000 0.19032  0.31094  0.24257  Biso   1.000  H
  H26      1.0000 0.30968  0.18906  0.74257  Biso   1.000  H
  H27      1.0000 0.80968  0.68906  0.75743  Biso   1.000  H
  H28      1.0000 0.69032  0.81094  0.25743  Biso   1.000  H
  C41      1.0000 0.15980  0.67860  0.75740  Biso   1.000  C
  C42      1.0000 0.34020  0.82140  0.25740  Biso   1.000  C
  C43      1.0000 0.84020  0.32140  0.24260  Biso   1.000  C
  C44      1.0000 0.65980  0.17860  0.74260  Biso   1.000  C
  H29      1.0000 0.14735  0.73866  0.77684  Biso   1.000  H
  H30      1.0000 0.35265  0.76134  0.27684  Biso   1.000  H
  H31      1.0000 0.85265  0.26134  0.22316  Biso   1.000  H
  H32      1.0000 0.64735  0.23866  0.72316  Biso   1.000  H
  C45      1.0000 0.52600  0.66210  0.75220  Biso   1.000  C
  C46      1.0000 0.97400  0.83790  0.25220  Biso   1.000  C
  C47      1.0000 0.47400  0.33790  0.24780  Biso   1.000  C
  C48      1.0000 0.02600  0.16210  0.74780  Biso   1.000  C
  H33      1.0000 0.52586  0.72882  0.76823  Biso   1.000  H
  H34      1.0000 0.97414  0.77118  0.26823  Biso   1.000  H
  H35      1.0000 0.47414  0.27118  0.23177  Biso   1.000  H
  H36      1.0000 0.02586  0.22882  0.73177  Biso   1.000  H
  C49      1.0000 0.17290  0.40110  0.34730  Biso   1.000  C
  C50      1.0000 0.32710  0.09890  0.84730  Biso   1.000  C
  C51      1.0000 0.82710  0.59890  0.65270  Biso   1.000  C
  C52      1.0000 0.67290  0.90110  0.15270  Biso   1.000  C
  H37      1.0000 0.18946  0.36279  0.39549  Biso   1.000  H
  H38      1.0000 0.31054  0.13721  0.89549  Biso   1.000  H
  H39      1.0000 0.81054  0.63721  0.60451  Biso   1.000  H
  H40      1.0000 0.68946  0.86279  0.10451  Biso   1.000  H
  C53      1.0000 0.15250  0.65160  0.66460  Biso   1.000  C
  C54      1.0000 0.34750  0.84840  0.16460  Biso   1.000  C
  C55      1.0000 0.84750  0.34840  0.33540  Biso   1.000  C
  C56      1.0000 0.65250  0.15160  0.83540  Biso   1.000  C
  H41      1.0000 0.13475  0.69373  0.62071  Biso   1.000  H
  H42      1.0000 0.36525  0.80627  0.12071  Biso   1.000  H
  H43      1.0000 0.86525  0.30627  0.37929  Biso   1.000  H
  H44      1.0000 0.63475  0.19373  0.87929  Biso   1.000  H
  C57      1.0000 0.51460  0.62960  0.66100  Biso   1.000  C
  C58      1.0000 0.98540  0.87040  0.16100  Biso   1.000  C
  C59      1.0000 0.48540  0.37040  0.33900  Biso   1.000  C
  C60      1.0000 0.01460  0.12960  0.83900  Biso   1.000  C
  H45      1.0000 0.50749  0.67554  0.61475  Biso   1.000  H
  H46      1.0000 0.99251  0.82446  0.11475  Biso   1.000  H
  H47      1.0000 0.49251  0.32446  0.38525  Biso   1.000  H
  H48      1.0000 0.00749  0.17554  0.88525  Biso   1.000  H
