data_image0
_cell_length_a       8.266
_cell_length_b       13.538
_cell_length_c       15.054
_cell_angle_alpha    70.697
_cell_angle_beta     84.221
_cell_angle_gamma    74.303

_symmetry_space_group_name_H-M    "P 1"
_symmetry_int_tables_number       1

loop_
  _symmetry_equiv_pos_as_xyz
  'x, y, z'

loop_
  _atom_site_label
  _atom_site_occupancy
  _atom_site_fract_x
  _atom_site_fract_y
  _atom_site_fract_z
  _atom_site_thermal_displace_type
  _atom_site_B_iso_or_equiv
  _atom_site_type_symbol
  Mo1      1.0000 0.02494  0.04545  0.58825  Biso   1.000  Mo
  Mo2      1.0000 0.97506  0.95455  0.41175  Biso   1.000  Mo
  Mo3      1.0000 0.41249  0.06220  0.58230  Biso   1.000  Mo
  Mo4      1.0000 0.58751  0.93780  0.41770  Biso   1.000  Mo
  Mo5      1.0000 0.44170  0.80879  0.64032  Biso   1.000  Mo
  Mo6      1.0000 0.55830  0.19121  0.35968  Biso   1.000  Mo
  Mo7      1.0000 0.16738  0.18643  0.37521  Biso   1.000  Mo
  Mo8      1.0000 0.83262  0.81357  0.62479  Biso   1.000  Mo
  Cu1      1.0000 0.05643  0.75277  0.15048  Biso   1.000  Cu
  Cu2      1.0000 0.94357  0.24723  0.84952  Biso   1.000  Cu
  Cu3      1.0000 0.76854  0.30744  0.46075  Biso   1.000  Cu
  Cu4      1.0000 0.23146  0.69256  0.53925  Biso   1.000  Cu
  O1       1.0000 0.51520  0.16270  0.52350  Biso   1.000  O
  O2       1.0000 0.48480  0.83730  0.47650  Biso   1.000  O
  O3       1.0000 0.27940  0.94290  0.59240  Biso   1.000  O
  O4       1.0000 0.72060  0.05710  0.40760  Biso   1.000  O
  O5       1.0000 0.99350  0.28900  0.38060  Biso   1.000  O
  O6       1.0000 0.00650  0.71100  0.61940  Biso   1.000  O
  O7       1.0000 0.03060  0.01230  0.70690  Biso   1.000  O
  O8       1.0000 0.96940  0.98770  0.29310  Biso   1.000  O
  O9       1.0000 0.33860  0.71330  0.63960  Biso   1.000  O
  O10      1.0000 0.66140  0.28670  0.36040  Biso   1.000  O
  O11      1.0000 0.43990  0.80270  0.75510  Biso   1.000  O
  O12      1.0000 0.56010  0.19730  0.24490  Biso   1.000  O
  O13      1.0000 0.40050  0.05890  0.69630  Biso   1.000  O
  O14      1.0000 0.59950  0.94110  0.30370  Biso   1.000  O
  O15      1.0000 0.85560  0.15690  0.55870  Biso   1.000  O
  O16      1.0000 0.14440  0.84310  0.44130  Biso   1.000  O
  O17      1.0000 0.18610  0.14100  0.53770  Biso   1.000  O
  O18      1.0000 0.81390  0.85900  0.46230  Biso   1.000  O
  O19      1.0000 0.93660  0.93670  0.56870  Biso   1.000  O
  O20      1.0000 0.06340  0.06330  0.43130  Biso   1.000  O
  O21      1.0000 0.17650  0.18360  0.26300  Biso   1.000  O
  O22      1.0000 0.82350  0.81640  0.73700  Biso   1.000  O
  O23      1.0000 0.58690  0.93310  0.58220  Biso   1.000  O
  O24      1.0000 0.41310  0.06690  0.41780  Biso   1.000  O
  O25      1.0000 0.67340  0.72970  0.62980  Biso   1.000  O
  O26      1.0000 0.32660  0.27030  0.37020  Biso   1.000  O
  C1       1.0000 0.62890  0.46830  0.65690  Biso   1.000  C
  C2       1.0000 0.37110  0.53170  0.34310  Biso   1.000  C
  C3       1.0000 0.57070  0.46620  0.74660  Biso   1.000  C
  C4       1.0000 0.42930  0.53380  0.25340  Biso   1.000  C
  H1       1.0000 0.56100  0.52440  0.76840  Biso   1.000  H
  H2       1.0000 0.43900  0.47560  0.23160  Biso   1.000  H
  C5       1.0000 0.52790  0.37300  0.80220  Biso   1.000  C
  C6       1.0000 0.47210  0.62700  0.19780  Biso   1.000  C
  H3       1.0000 0.48870  0.36780  0.86330  Biso   1.000  H
  H4       1.0000 0.51130  0.63220  0.13670  Biso   1.000  H
  C7       1.0000 0.54210  0.28590  0.76840  Biso   1.000  C
  C8       1.0000 0.45790  0.71410  0.23160  Biso   1.000  C
  H5       1.0000 0.51260  0.22430  0.80810  Biso   1.000  H
  H6       1.0000 0.48740  0.77570  0.19190  Biso   1.000  H
  C9       1.0000 0.59810  0.28870  0.67900  Biso   1.000  C
  C10      1.0000 0.40190  0.71130  0.32100  Biso   1.000  C
  H7       1.0000 0.60670  0.23060  0.65740  Biso   1.000  H
  H8       1.0000 0.39330  0.76940  0.34260  Biso   1.000  H
  C11      1.0000 0.64160  0.38280  0.62170  Biso   1.000  C
  C12      1.0000 0.35840  0.61720  0.37830  Biso   1.000  C
  C13      1.0000 0.73080  0.50710  0.51090  Biso   1.000  C
  C14      1.0000 0.26920  0.49290  0.48910  Biso   1.000  C
  C15      1.0000 0.80550  0.56500  0.42280  Biso   1.000  C
  C16      1.0000 0.19450  0.43500  0.57720  Biso   1.000  C
  C17      1.0000 0.81080  0.54000  0.34060  Biso   1.000  C
  C18      1.0000 0.18920  0.46000  0.65940  Biso   1.000  C
  H9       1.0000 0.76370  0.48540  0.33920  Biso   1.000  H
  H10      1.0000 0.23630  0.51460  0.66080  Biso   1.000  H
  C19      1.0000 0.88530  0.59540  0.26070  Biso   1.000  C
  C20      1.0000 0.11470  0.40460  0.73930  Biso   1.000  C
  H11      1.0000 0.88860  0.57630  0.20650  Biso   1.000  H
  H12      1.0000 0.11140  0.42370  0.79350  Biso   1.000  H
  C21      1.0000 0.94640  0.70100  0.33800  Biso   1.000  C
  C22      1.0000 0.05360  0.29900  0.66200  Biso   1.000  C
  H13      1.0000 0.99090  0.75740  0.33730  Biso   1.000  H
  H14      1.0000 0.00910  0.24260  0.66270  Biso   1.000  H
  C23      1.0000 0.87760  0.64830  0.41990  Biso   1.000  C
  C24      1.0000 0.12240  0.35170  0.58010  Biso   1.000  C
  H15      1.0000 0.87850  0.66760  0.47370  Biso   1.000  H
  H16      1.0000 0.12150  0.33240  0.52630  Biso   1.000  H
  C25      1.0000 0.20170  0.92820  0.03480  Biso   1.000  C
  C26      1.0000 0.79830  0.07180  0.96520  Biso   1.000  C
  C27      1.0000 0.18290  0.98680  0.09720  Biso   1.000  C
  C28      1.0000 0.81710  0.01320  0.90280  Biso   1.000  C
  H17      1.0000 0.13910  0.96270  0.15760  Biso   1.000  H
  H18      1.0000 0.86090  0.03730  0.84240  Biso   1.000  H
  C29      1.0000 0.23220  0.08260  0.06550  Biso   1.000  C
  C30      1.0000 0.76780  0.91740  0.93450  Biso   1.000  C
  H19      1.0000 0.22450  0.12290  0.10590  Biso   1.000  H
  H20      1.0000 0.77550  0.87710  0.89410  Biso   1.000  H
  C31      1.0000 0.29400  0.12030  0.97300  Biso   1.000  C
  C32      1.0000 0.70600  0.87970  0.02700  Biso   1.000  C
  H21      1.0000 0.32450  0.18560  0.95350  Biso   1.000  H
  H22      1.0000 0.67550  0.81440  0.04650  Biso   1.000  H
  C33      1.0000 0.31050  0.06260  0.91090  Biso   1.000  C
  C34      1.0000 0.68950  0.93740  0.08910  Biso   1.000  C
  H23      1.0000 0.35120  0.08760  0.84990  Biso   1.000  H
  H24      1.0000 0.64880  0.91240  0.15010  Biso   1.000  H
  C35      1.0000 0.26360  0.96590  0.94330  Biso   1.000  C
  C36      1.0000 0.73640  0.03410  0.05670  Biso   1.000  C
  C37      1.0000 0.20540  0.80900  0.96510  Biso   1.000  C
  C38      1.0000 0.79460  0.19100  0.03490  Biso   1.000  C
  C39      1.0000 0.19080  0.71220  0.94610  Biso   1.000  C
  C40      1.0000 0.80920  0.28780  0.05390  Biso   1.000  C
  C41      1.0000 0.14930  0.71760  0.85730  Biso   1.000  C
  C42      1.0000 0.85070  0.28240  0.14270  Biso   1.000  C
  H25      1.0000 0.12800  0.78330  0.80890  Biso   1.000  H
  H26      1.0000 0.87200  0.21670  0.19110  Biso   1.000  H
  C43      1.0000 0.13960  0.62380  0.84110  Biso   1.000  C
  C44      1.0000 0.86040  0.37620  0.15890  Biso   1.000  C
  H27      1.0000 0.11100  0.62910  0.78120  Biso   1.000  H
  H28      1.0000 0.88900  0.37090  0.21880  Biso   1.000  H
  C45      1.0000 0.21110  0.52150  0.99350  Biso   1.000  C
  C46      1.0000 0.78890  0.47850  0.00650  Biso   1.000  C
  H29      1.0000 0.23400  0.45470  0.04040  Biso   1.000  H
  H30      1.0000 0.76600  0.54530  0.95960  Biso   1.000  H
  C47      1.0000 0.22150  0.61080  0.01550  Biso   1.000  C
  C48      1.0000 0.77850  0.38920  0.98450  Biso   1.000  C
  H31      1.0000 0.24870  0.60360  0.07620  Biso   1.000  H
  H32      1.0000 0.75130  0.39640  0.92380  Biso   1.000  H
  N1       1.0000 0.68800  0.54610  0.58480  Biso   1.000  N
  N2       1.0000 0.31200  0.45390  0.41520  Biso   1.000  N
  H33      1.0000 0.69590  0.60740  0.58670  Biso   1.000  H
  H34      1.0000 0.30410  0.39260  0.41330  Biso   1.000  H
  N3       1.0000 0.70460  0.40940  0.52950  Biso   1.000  N
  N4       1.0000 0.29540  0.59060  0.47050  Biso   1.000  N
  N5       1.0000 0.95390  0.67620  0.25790  Biso   1.000  N
  N6       1.0000 0.04610  0.32380  0.74210  Biso   1.000  N
  N7       1.0000 0.16360  0.82990  0.04620  Biso   1.000  N
  N8       1.0000 0.83640  0.17010  0.95380  Biso   1.000  N
  N9       1.0000 0.26540  0.88770  0.90270  Biso   1.000  N
  N10      1.0000 0.73460  0.11230  0.09730  Biso   1.000  N
  H35      1.0000 0.29960  0.88930  0.84640  Biso   1.000  H
  H36      1.0000 0.70040  0.11070  0.15360  Biso   1.000  H
  N11      1.0000 0.16980  0.52540  0.90800  Biso   1.000  N
  N12      1.0000 0.83020  0.47460  0.09200  Biso   1.000  N
