data_image0
_cell_length_a       9.987
_cell_length_b       15.964
_cell_length_c       16.9791
_cell_angle_alpha    108.829
_cell_angle_beta     90
_cell_angle_gamma    90

_symmetry_space_group_name_H-M    "P 1"
_symmetry_int_tables_number       1

loop_
  _symmetry_equiv_pos_as_xyz
  'x, y, z'

loop_
  _atom_site_label
  _atom_site_occupancy
  _atom_site_fract_x
  _atom_site_fract_y
  _atom_site_fract_z
  _atom_site_thermal_displace_type
  _atom_site_B_iso_or_equiv
  _atom_site_type_symbol
  Cu1      1.0000 0.83010  0.71970  0.67090  Biso   1.000  Cu
  Cu2      1.0000 0.83010  0.78030  0.32910  Biso   1.000  Cu
  Cu3      1.0000 0.33010  0.21970  0.17090  Biso   1.000  Cu
  Cu4      1.0000 0.33010  0.28030  0.82910  Biso   1.000  Cu
  Cu5      1.0000 0.16990  0.28030  0.32910  Biso   1.000  Cu
  Cu6      1.0000 0.16990  0.21970  0.67090  Biso   1.000  Cu
  Cu7      1.0000 0.66990  0.78030  0.82910  Biso   1.000  Cu
  Cu8      1.0000 0.66990  0.71970  0.17090  Biso   1.000  Cu
  Cl1      1.0000 0.05370  0.74990  0.68320  Biso   1.000  Cl
  Cl2      1.0000 0.05370  0.75010  0.31680  Biso   1.000  Cl
  Cl3      1.0000 0.55370  0.24990  0.18320  Biso   1.000  Cl
  Cl4      1.0000 0.55370  0.25010  0.81680  Biso   1.000  Cl
  Cl5      1.0000 0.94630  0.25010  0.31680  Biso   1.000  Cl
  Cl6      1.0000 0.94630  0.24990  0.68320  Biso   1.000  Cl
  Cl7      1.0000 0.44630  0.75010  0.81680  Biso   1.000  Cl
  Cl8      1.0000 0.44630  0.74990  0.18320  Biso   1.000  Cl
  S1       1.0000 0.72860  0.62460  0.55400  Biso   1.000  S
  S2       1.0000 0.72860  0.87540  0.44600  Biso   1.000  S
  S3       1.0000 0.22860  0.12460  0.05400  Biso   1.000  S
  S4       1.0000 0.22860  0.37540  0.94600  Biso   1.000  S
  S5       1.0000 0.27140  0.37540  0.44600  Biso   1.000  S
  S6       1.0000 0.27140  0.12460  0.55400  Biso   1.000  S
  S7       1.0000 0.77140  0.87540  0.94600  Biso   1.000  S
  S8       1.0000 0.77140  0.62460  0.05400  Biso   1.000  S
  C1       1.0000 0.84180  0.58500  0.47690  Biso   1.000  C
  C2       1.0000 0.84180  0.91500  0.52310  Biso   1.000  C
  C3       1.0000 0.34180  0.08500  0.97690  Biso   1.000  C
  C4       1.0000 0.34180  0.41500  0.02310  Biso   1.000  C
  C5       1.0000 0.15820  0.41500  0.52310  Biso   1.000  C
  C6       1.0000 0.15820  0.08500  0.47690  Biso   1.000  C
  C7       1.0000 0.65820  0.91500  0.02310  Biso   1.000  C
  C8       1.0000 0.65820  0.58500  0.97690  Biso   1.000  C
  C9       1.0000 0.97270  0.62690  0.46980  Biso   1.000  C
  C10      1.0000 0.97270  0.87310  0.53020  Biso   1.000  C
  C11      1.0000 0.47270  0.12690  0.96980  Biso   1.000  C
  C12      1.0000 0.47270  0.37310  0.03020  Biso   1.000  C
  C13      1.0000 0.02730  0.37310  0.53020  Biso   1.000  C
  C14      1.0000 0.02730  0.12690  0.46980  Biso   1.000  C
  C15      1.0000 0.52730  0.87310  0.03020  Biso   1.000  C
  C16      1.0000 0.52730  0.62690  0.96980  Biso   1.000  C
  C17      1.0000 0.04690  0.55860  0.40150  Biso   1.000  C
  C18      1.0000 0.04690  0.94140  0.59850  Biso   1.000  C
  C19      1.0000 0.54690  0.05860  0.90150  Biso   1.000  C
  C20      1.0000 0.54690  0.44140  0.09850  Biso   1.000  C
  C21      1.0000 0.95310  0.44140  0.59850  Biso   1.000  C
  C22      1.0000 0.95310  0.05860  0.40150  Biso   1.000  C
  C23      1.0000 0.45310  0.94140  0.09850  Biso   1.000  C
  C24      1.0000 0.45310  0.55860  0.90150  Biso   1.000  C
  C25      1.0000 0.94160  0.49460  0.35410  Biso   1.000  C
  C26      1.0000 0.94160  0.00540  0.64590  Biso   1.000  C
  C27      1.0000 0.44160  0.99460  0.85410  Biso   1.000  C
  C28      1.0000 0.44160  0.50540  0.14590  Biso   1.000  C
  C29      1.0000 0.05840  0.50540  0.64590  Biso   1.000  C
  C30      1.0000 0.05840  0.99460  0.35410  Biso   1.000  C
  C31      1.0000 0.55840  0.00540  0.14590  Biso   1.000  C
  C32      1.0000 0.55840  0.49460  0.85410  Biso   1.000  C
  N1       1.0000 0.82730  0.51340  0.41210  Biso   1.000  N
  N2       1.0000 0.82730  0.98660  0.58790  Biso   1.000  N
  N3       1.0000 0.32730  0.01340  0.91210  Biso   1.000  N
  N4       1.0000 0.32730  0.48660  0.08790  Biso   1.000  N
  N5       1.0000 0.17270  0.48660  0.58790  Biso   1.000  N
  N6       1.0000 0.17270  0.01340  0.41210  Biso   1.000  N
  N7       1.0000 0.67270  0.98660  0.08790  Biso   1.000  N
  N8       1.0000 0.67270  0.51340  0.91210  Biso   1.000  N
  C33      1.0000 0.70960  0.45660  0.39070  Biso   1.000  C
  C34      1.0000 0.70960  0.04340  0.60930  Biso   1.000  C
  C35      1.0000 0.20960  0.95660  0.89070  Biso   1.000  C
  C36      1.0000 0.20960  0.54340  0.10930  Biso   1.000  C
  C37      1.0000 0.29040  0.54340  0.60930  Biso   1.000  C
  C38      1.0000 0.29040  0.95660  0.39070  Biso   1.000  C
  C39      1.0000 0.79040  0.04340  0.10930  Biso   1.000  C
  C40      1.0000 0.79040  0.45660  0.89070  Biso   1.000  C
  C41      1.0000 0.62810  0.47200  0.32060  Biso   1.000  C
  C42      1.0000 0.62810  0.02800  0.67940  Biso   1.000  C
  C43      1.0000 0.12810  0.97200  0.82060  Biso   1.000  C
  C44      1.0000 0.12810  0.52800  0.17940  Biso   1.000  C
  C45      1.0000 0.37190  0.52800  0.67940  Biso   1.000  C
  C46      1.0000 0.37190  0.97200  0.32060  Biso   1.000  C
  C47      1.0000 0.87190  0.02800  0.17940  Biso   1.000  C
  C48      1.0000 0.87190  0.47200  0.82060  Biso   1.000  C
  N9       1.0000 0.56030  0.55670  0.34520  Biso   1.000  N
  N10      1.0000 0.56030  0.94330  0.65480  Biso   1.000  N
  N11      1.0000 0.06030  0.05670  0.84520  Biso   1.000  N
  N12      1.0000 0.06030  0.44330  0.15480  Biso   1.000  N
  N13      1.0000 0.43970  0.44330  0.65480  Biso   1.000  N
  N14      1.0000 0.43970  0.05670  0.34520  Biso   1.000  N
  N15      1.0000 0.93970  0.94330  0.15480  Biso   1.000  N
  N16      1.0000 0.93970  0.55670  0.84520  Biso   1.000  N
  C49      1.0000 0.43600  0.56990  0.39480  Biso   1.000  C
  C50      1.0000 0.43600  0.93010  0.60520  Biso   1.000  C
  C51      1.0000 0.93600  0.06990  0.89480  Biso   1.000  C
  C52      1.0000 0.93600  0.43010  0.10520  Biso   1.000  C
  C53      1.0000 0.56400  0.43010  0.60520  Biso   1.000  C
  C54      1.0000 0.56400  0.06990  0.39480  Biso   1.000  C
  C55      1.0000 0.06400  0.93010  0.10520  Biso   1.000  C
  C56      1.0000 0.06400  0.56990  0.89480  Biso   1.000  C
  C57      1.0000 0.38110  0.65550  0.38950  Biso   1.000  C
  C58      1.0000 0.38110  0.84450  0.61050  Biso   1.000  C
  C59      1.0000 0.88110  0.15550  0.88950  Biso   1.000  C
  C60      1.0000 0.88110  0.34450  0.11050  Biso   1.000  C
  C61      1.0000 0.61890  0.34450  0.61050  Biso   1.000  C
  C62      1.0000 0.61890  0.15550  0.38950  Biso   1.000  C
  C63      1.0000 0.11890  0.84450  0.11050  Biso   1.000  C
  C64      1.0000 0.11890  0.65550  0.88950  Biso   1.000  C
  C65      1.0000 0.50330  0.70260  0.37110  Biso   1.000  C
  C66      1.0000 0.50330  0.79740  0.62890  Biso   1.000  C
  C67      1.0000 0.00330  0.20260  0.87110  Biso   1.000  C
  C68      1.0000 0.00330  0.29740  0.12890  Biso   1.000  C
  C69      1.0000 0.49670  0.29740  0.62890  Biso   1.000  C
  C70      1.0000 0.49670  0.20260  0.37110  Biso   1.000  C
  C71      1.0000 0.99670  0.79740  0.12890  Biso   1.000  C
  C72      1.0000 0.99670  0.70260  0.87110  Biso   1.000  C
  C73      1.0000 0.59820  0.62940  0.33010  Biso   1.000  C
  C74      1.0000 0.59820  0.87060  0.66990  Biso   1.000  C
  C75      1.0000 0.09820  0.12940  0.83010  Biso   1.000  C
  C76      1.0000 0.09820  0.37060  0.16990  Biso   1.000  C
  C77      1.0000 0.40180  0.37060  0.66990  Biso   1.000  C
  C78      1.0000 0.40180  0.12940  0.33010  Biso   1.000  C
  C79      1.0000 0.90180  0.87060  0.16990  Biso   1.000  C
  C80      1.0000 0.90180  0.62940  0.83010  Biso   1.000  C
  S9       1.0000 0.73480  0.86320  0.72610  Biso   1.000  S
  S10      1.0000 0.73480  0.63680  0.27390  Biso   1.000  S
  S11      1.0000 0.23480  0.36320  0.22610  Biso   1.000  S
  S12      1.0000 0.23480  0.13680  0.77390  Biso   1.000  S
  S13      1.0000 0.26520  0.13680  0.27390  Biso   1.000  S
  S14      1.0000 0.26520  0.36320  0.72610  Biso   1.000  S
  S15      1.0000 0.76520  0.63680  0.77390  Biso   1.000  S
  S16      1.0000 0.76520  0.86320  0.22610  Biso   1.000  S
  H1       1.0000 0.02200  0.64160  0.52180  Biso   1.000  H
  H2       1.0000 0.02200  0.85840  0.47820  Biso   1.000  H
  H3       1.0000 0.52200  0.14160  0.02180  Biso   1.000  H
  H4       1.0000 0.52200  0.35840  0.97820  Biso   1.000  H
  H5       1.0000 0.97800  0.35840  0.47820  Biso   1.000  H
  H6       1.0000 0.97800  0.14160  0.52180  Biso   1.000  H
  H7       1.0000 0.47800  0.85840  0.97820  Biso   1.000  H
  H8       1.0000 0.47800  0.64160  0.02180  Biso   1.000  H
  H9       1.0000 0.95940  0.68060  0.45570  Biso   1.000  H
  H10      1.0000 0.95940  0.81940  0.54430  Biso   1.000  H
  H11      1.0000 0.45940  0.18060  0.95570  Biso   1.000  H
  H12      1.0000 0.45940  0.31940  0.04430  Biso   1.000  H
  H13      1.0000 0.04060  0.31940  0.54430  Biso   1.000  H
  H14      1.0000 0.04060  0.18060  0.45570  Biso   1.000  H
  H15      1.0000 0.54060  0.81940  0.04430  Biso   1.000  H
  H16      1.0000 0.54060  0.68060  0.95570  Biso   1.000  H
  H17      1.0000 0.09190  0.58600  0.36540  Biso   1.000  H
  H18      1.0000 0.09190  0.91400  0.63460  Biso   1.000  H
  H19      1.0000 0.59190  0.08600  0.86540  Biso   1.000  H
  H20      1.0000 0.59190  0.41400  0.13460  Biso   1.000  H
  H21      1.0000 0.90810  0.41400  0.63460  Biso   1.000  H
  H22      1.0000 0.90810  0.08600  0.36540  Biso   1.000  H
  H23      1.0000 0.40810  0.91400  0.13460  Biso   1.000  H
  H24      1.0000 0.40810  0.58600  0.86540  Biso   1.000  H
  H25      1.0000 0.11300  0.52860  0.42460  Biso   1.000  H
  H26      1.0000 0.11300  0.97140  0.57540  Biso   1.000  H
  H27      1.0000 0.61300  0.02860  0.92460  Biso   1.000  H
  H28      1.0000 0.61300  0.47140  0.07540  Biso   1.000  H
  H29      1.0000 0.88700  0.47140  0.57540  Biso   1.000  H
  H30      1.0000 0.88700  0.02860  0.42460  Biso   1.000  H
  H31      1.0000 0.38700  0.97140  0.07540  Biso   1.000  H
  H32      1.0000 0.38700  0.52860  0.92460  Biso   1.000  H
  H33      1.0000 0.91860  0.50540  0.30270  Biso   1.000  H
  H34      1.0000 0.91860  0.99460  0.69730  Biso   1.000  H
  H35      1.0000 0.41860  0.00540  0.80270  Biso   1.000  H
  H36      1.0000 0.41860  0.49460  0.19730  Biso   1.000  H
  H37      1.0000 0.08140  0.49460  0.69730  Biso   1.000  H
  H38      1.0000 0.08140  0.00540  0.30270  Biso   1.000  H
  H39      1.0000 0.58140  0.99460  0.19730  Biso   1.000  H
  H40      1.0000 0.58140  0.50540  0.80270  Biso   1.000  H
  H41      1.0000 0.97160  0.43390  0.34140  Biso   1.000  H
  H42      1.0000 0.97160  0.06610  0.65860  Biso   1.000  H
  H43      1.0000 0.47160  0.93390  0.84140  Biso   1.000  H
  H44      1.0000 0.47160  0.56610  0.15860  Biso   1.000  H
  H45      1.0000 0.02840  0.56610  0.65860  Biso   1.000  H
  H46      1.0000 0.02840  0.93390  0.34140  Biso   1.000  H
  H47      1.0000 0.52840  0.06610  0.15860  Biso   1.000  H
  H48      1.0000 0.52840  0.43390  0.84140  Biso   1.000  H
  H49      1.0000 0.65330  0.46780  0.43960  Biso   1.000  H
  H50      1.0000 0.65330  0.03220  0.56040  Biso   1.000  H
  H51      1.0000 0.15330  0.96780  0.93960  Biso   1.000  H
  H52      1.0000 0.15330  0.53220  0.06040  Biso   1.000  H
  H53      1.0000 0.34670  0.53220  0.56040  Biso   1.000  H
  H54      1.0000 0.34670  0.96780  0.43960  Biso   1.000  H
  H55      1.0000 0.84670  0.03220  0.06040  Biso   1.000  H
  H56      1.0000 0.84670  0.46780  0.93960  Biso   1.000  H
  H57      1.0000 0.73760  0.39520  0.37400  Biso   1.000  H
  H58      1.0000 0.73760  0.10480  0.62600  Biso   1.000  H
  H59      1.0000 0.23760  0.89520  0.87400  Biso   1.000  H
  H60      1.0000 0.23760  0.60480  0.12600  Biso   1.000  H
  H61      1.0000 0.26240  0.60480  0.62600  Biso   1.000  H
  H62      1.0000 0.26240  0.89520  0.37400  Biso   1.000  H
  H63      1.0000 0.76240  0.10480  0.12600  Biso   1.000  H
  H64      1.0000 0.76240  0.39520  0.87400  Biso   1.000  H
  H65      1.0000 0.68730  0.46840  0.27430  Biso   1.000  H
  H66      1.0000 0.68730  0.03160  0.72570  Biso   1.000  H
  H67      1.0000 0.18730  0.96840  0.77430  Biso   1.000  H
  H68      1.0000 0.18730  0.53160  0.22570  Biso   1.000  H
  H69      1.0000 0.31270  0.53160  0.72570  Biso   1.000  H
  H70      1.0000 0.31270  0.96840  0.27430  Biso   1.000  H
  H71      1.0000 0.81270  0.03160  0.22570  Biso   1.000  H
  H72      1.0000 0.81270  0.46840  0.77430  Biso   1.000  H
  H73      1.0000 0.56210  0.42520  0.30140  Biso   1.000  H
  H74      1.0000 0.56210  0.07480  0.69860  Biso   1.000  H
  H75      1.0000 0.06210  0.92520  0.80140  Biso   1.000  H
  H76      1.0000 0.06210  0.57480  0.19860  Biso   1.000  H
  H77      1.0000 0.43790  0.57480  0.69860  Biso   1.000  H
  H78      1.0000 0.43790  0.92520  0.30140  Biso   1.000  H
  H79      1.0000 0.93790  0.07480  0.19860  Biso   1.000  H
  H80      1.0000 0.93790  0.42520  0.80140  Biso   1.000  H
  H81      1.0000 0.45490  0.57420  0.45200  Biso   1.000  H
  H82      1.0000 0.45490  0.92580  0.54800  Biso   1.000  H
  H83      1.0000 0.95490  0.07420  0.95200  Biso   1.000  H
  H84      1.0000 0.95490  0.42580  0.04800  Biso   1.000  H
  H85      1.0000 0.54510  0.42580  0.54800  Biso   1.000  H
  H86      1.0000 0.54510  0.07420  0.45200  Biso   1.000  H
  H87      1.0000 0.04510  0.92580  0.04800  Biso   1.000  H
  H88      1.0000 0.04510  0.57420  0.95200  Biso   1.000  H
  H89      1.0000 0.37360  0.52160  0.37140  Biso   1.000  H
  H90      1.0000 0.37360  0.97840  0.62860  Biso   1.000  H
  H91      1.0000 0.87360  0.02160  0.87140  Biso   1.000  H
  H92      1.0000 0.87360  0.47840  0.12860  Biso   1.000  H
  H93      1.0000 0.62640  0.47840  0.62860  Biso   1.000  H
  H94      1.0000 0.62640  0.02160  0.37140  Biso   1.000  H
  H95      1.0000 0.12640  0.97840  0.12860  Biso   1.000  H
  H96      1.0000 0.12640  0.52160  0.87140  Biso   1.000  H
  H97      1.0000 0.33980  0.68980  0.44160  Biso   1.000  H
  H98      1.0000 0.33980  0.81020  0.55840  Biso   1.000  H
  H99      1.0000 0.83980  0.18980  0.94160  Biso   1.000  H
  H100     1.0000 0.83980  0.31020  0.05840  Biso   1.000  H
  H101     1.0000 0.66020  0.31020  0.55840  Biso   1.000  H
  H102     1.0000 0.66020  0.18980  0.44160  Biso   1.000  H
  H103     1.0000 0.16020  0.81020  0.05840  Biso   1.000  H
  H104     1.0000 0.16020  0.68980  0.94160  Biso   1.000  H
  H105     1.0000 0.31550  0.64480  0.34520  Biso   1.000  H
  H106     1.0000 0.31550  0.85520  0.65480  Biso   1.000  H
  H107     1.0000 0.81550  0.14480  0.84520  Biso   1.000  H
  H108     1.0000 0.81550  0.35520  0.15480  Biso   1.000  H
  H109     1.0000 0.68450  0.35520  0.65480  Biso   1.000  H
  H110     1.0000 0.68450  0.14480  0.34520  Biso   1.000  H
  H111     1.0000 0.18450  0.85520  0.15480  Biso   1.000  H
  H112     1.0000 0.18450  0.64480  0.84520  Biso   1.000  H
  H113     1.0000 0.48070  0.73590  0.33420  Biso   1.000  H
  H114     1.0000 0.48070  0.76410  0.66580  Biso   1.000  H
  H115     1.0000 0.98070  0.23590  0.83420  Biso   1.000  H
  H116     1.0000 0.98070  0.26410  0.16580  Biso   1.000  H
  H117     1.0000 0.51930  0.26410  0.66580  Biso   1.000  H
  H118     1.0000 0.51930  0.23590  0.33420  Biso   1.000  H
  H119     1.0000 0.01930  0.76410  0.16580  Biso   1.000  H
  H120     1.0000 0.01930  0.73590  0.83420  Biso   1.000  H
  H121     1.0000 0.54120  0.74240  0.42190  Biso   1.000  H
  H122     1.0000 0.54120  0.75760  0.57810  Biso   1.000  H
  H123     1.0000 0.04120  0.24240  0.92190  Biso   1.000  H
  H124     1.0000 0.04120  0.25760  0.07810  Biso   1.000  H
  H125     1.0000 0.45880  0.25760  0.57810  Biso   1.000  H
  H126     1.0000 0.45880  0.24240  0.42190  Biso   1.000  H
  H127     1.0000 0.95880  0.75760  0.07810  Biso   1.000  H
  H128     1.0000 0.95880  0.74240  0.92190  Biso   1.000  H
