data_image0
_cell_length_a       6.333
_cell_length_b       11.504
_cell_length_c       18.796
_cell_angle_alpha    90
_cell_angle_beta     90
_cell_angle_gamma    102.53

_symmetry_space_group_name_H-M    "P 1"
_symmetry_int_tables_number       1

loop_
  _symmetry_equiv_pos_as_xyz
  'x, y, z'

loop_
  _atom_site_label
  _atom_site_occupancy
  _atom_site_fract_x
  _atom_site_fract_y
  _atom_site_fract_z
  _atom_site_thermal_displace_type
  _atom_site_B_iso_or_equiv
  _atom_site_type_symbol
  V1       1.0000 0.98140  0.87380  0.65100  Biso   1.000  V
  V2       1.0000 0.01860  0.62620  0.15100  Biso   1.000  V
  V3       1.0000 0.01860  0.12620  0.34900  Biso   1.000  V
  V4       1.0000 0.98140  0.37380  0.84900  Biso   1.000  V
  N1       1.0000 0.86740  0.03690  0.68630  Biso   1.000  N
  N2       1.0000 0.13260  0.46310  0.18630  Biso   1.000  N
  N3       1.0000 0.13260  0.96310  0.31370  Biso   1.000  N
  N4       1.0000 0.86740  0.53690  0.81370  Biso   1.000  N
  O1       1.0000 0.99610  0.75170  0.60570  Biso   1.000  O
  O2       1.0000 0.00390  0.74830  0.10570  Biso   1.000  O
  O3       1.0000 0.00390  0.24830  0.39430  Biso   1.000  O
  O4       1.0000 0.99610  0.25170  0.89430  Biso   1.000  O
  O5       1.0000 0.17430  0.89080  0.70950  Biso   1.000  O
  O6       1.0000 0.82570  0.60920  0.20950  Biso   1.000  O
  O7       1.0000 0.82570  0.10920  0.29050  Biso   1.000  O
  O8       1.0000 0.17430  0.39080  0.79050  Biso   1.000  O
  O9       1.0000 0.70270  0.88890  0.57670  Biso   1.000  O
  O10      1.0000 0.29730  0.61110  0.07670  Biso   1.000  O
  O11      1.0000 0.29730  0.11110  0.42330  Biso   1.000  O
  O12      1.0000 0.70270  0.38890  0.92330  Biso   1.000  O
  O13      1.0000 0.12490  0.99720  0.58450  Biso   1.000  O
  O14      1.0000 0.87510  0.50280  0.08450  Biso   1.000  O
  O15      1.0000 0.87510  0.00280  0.41550  Biso   1.000  O
  O16      1.0000 0.12490  0.49720  0.91550  Biso   1.000  O
  O17      1.0000 0.74330  0.81350  0.71940  Biso   1.000  O
  O18      1.0000 0.25670  0.68650  0.21940  Biso   1.000  O
  O19      1.0000 0.25670  0.18650  0.28060  Biso   1.000  O
  O20      1.0000 0.74330  0.31350  0.78060  Biso   1.000  O
  O21      1.0000 0.60660  0.84720  0.82390  Biso   1.000  O
  O22      1.0000 0.39340  0.65280  0.32390  Biso   1.000  O
  O23      1.0000 0.39340  0.15280  0.17610  Biso   1.000  O
  O24      1.0000 0.60660  0.34720  0.67610  Biso   1.000  O
  O25      1.0000 0.25780  0.18890  0.56100  Biso   1.000  O
  O26      1.0000 0.74220  0.31110  0.06100  Biso   1.000  O
  O27      1.0000 0.74220  0.81110  0.43900  Biso   1.000  O
  O28      1.0000 0.25780  0.68890  0.93900  Biso   1.000  O
  C1       1.0000 0.66240  0.04750  0.65150  Biso   1.000  C
  C2       1.0000 0.33760  0.45250  0.15150  Biso   1.000  C
  C3       1.0000 0.33760  0.95250  0.34850  Biso   1.000  C
  C4       1.0000 0.66240  0.54750  0.84850  Biso   1.000  C
  C5       1.0000 0.65580  0.00660  0.57560  Biso   1.000  C
  C6       1.0000 0.34420  0.49340  0.07560  Biso   1.000  C
  C7       1.0000 0.34420  0.99340  0.42440  Biso   1.000  C
  C8       1.0000 0.65580  0.50660  0.92440  Biso   1.000  C
  C9       1.0000 0.04730  0.13730  0.66850  Biso   1.000  C
  C10      1.0000 0.95270  0.36270  0.16850  Biso   1.000  C
  C11      1.0000 0.95270  0.86270  0.33150  Biso   1.000  C
  C12      1.0000 0.04730  0.63730  0.83150  Biso   1.000  C
  C13      1.0000 0.15360  0.10900  0.59930  Biso   1.000  C
  C14      1.0000 0.84640  0.39100  0.09930  Biso   1.000  C
  C15      1.0000 0.84640  0.89100  0.40070  Biso   1.000  C
  C16      1.0000 0.15360  0.60900  0.90070  Biso   1.000  C
  C17      1.0000 0.82740  0.01430  0.76300  Biso   1.000  C
  C18      1.0000 0.17260  0.48570  0.26300  Biso   1.000  C
  C19      1.0000 0.17260  0.98570  0.23700  Biso   1.000  C
  C20      1.0000 0.82740  0.51430  0.73700  Biso   1.000  C
  C21      1.0000 0.71690  0.88340  0.77160  Biso   1.000  C
  C22      1.0000 0.28310  0.61660  0.27160  Biso   1.000  C
  C23      1.0000 0.28310  0.11660  0.22840  Biso   1.000  C
  C24      1.0000 0.71690  0.38340  0.72840  Biso   1.000  C
  Na1      1.0000 0.49990  0.37890  0.56160  Biso   1.000  Na
  Na2      1.0000 0.50010  0.12110  0.06160  Biso   1.000  Na
  Na3      1.0000 0.50010  0.62110  0.43840  Biso   1.000  Na
  Na4      1.0000 0.49990  0.87890  0.93840  Biso   1.000  Na
  O29      1.0000 0.83410  0.33600  0.52640  Biso   1.000  O
  O30      1.0000 0.16590  0.16400  0.02640  Biso   1.000  O
  O31      1.0000 0.16590  0.66400  0.47360  Biso   1.000  O
  O32      1.0000 0.83410  0.83600  0.97360  Biso   1.000  O
  O33      1.0000 0.19700  0.43140  0.62880  Biso   1.000  O
  O34      1.0000 0.80300  0.06860  0.12880  Biso   1.000  O
  O35      1.0000 0.80300  0.56860  0.37120  Biso   1.000  O
  O36      1.0000 0.19700  0.93140  0.87120  Biso   1.000  O
  O37      1.0000 0.38390  0.40360  0.44280  Biso   1.000  O
  O38      1.0000 0.61610  0.09640  0.94280  Biso   1.000  O
  O39      1.0000 0.61610  0.59640  0.55720  Biso   1.000  O
  O40      1.0000 0.38390  0.90360  0.05720  Biso   1.000  O
  O41      1.0000 0.64650  0.83040  0.16280  Biso   1.000  O
  O42      1.0000 0.35350  0.66960  0.66280  Biso   1.000  O
  O43      1.0000 0.35350  0.16960  0.83720  Biso   1.000  O
  O44      1.0000 0.64650  0.33040  0.33720  Biso   1.000  O
  H1       1.0000 0.64860  0.12980  0.65310  Biso   1.000  H
  H2       1.0000 0.35140  0.37020  0.15310  Biso   1.000  H
  H3       1.0000 0.35140  0.87020  0.34690  Biso   1.000  H
  H4       1.0000 0.64860  0.62980  0.84690  Biso   1.000  H
  H5       1.0000 0.54130  0.99980  0.67730  Biso   1.000  H
  H6       1.0000 0.45870  0.50020  0.17730  Biso   1.000  H
  H7       1.0000 0.45870  0.00020  0.32270  Biso   1.000  H
  H8       1.0000 0.54130  0.49980  0.82270  Biso   1.000  H
  H9       1.0000 0.51400  0.00370  0.55520  Biso   1.000  H
  H10      1.0000 0.48600  0.49630  0.05520  Biso   1.000  H
  H11      1.0000 0.48600  0.99630  0.44480  Biso   1.000  H
  H12      1.0000 0.51400  0.50370  0.94480  Biso   1.000  H
  H13      1.0000 0.76280  0.06060  0.54750  Biso   1.000  H
  H14      1.0000 0.23720  0.43940  0.04750  Biso   1.000  H
  H15      1.0000 0.23720  0.93940  0.45250  Biso   1.000  H
  H16      1.0000 0.76280  0.56060  0.95250  Biso   1.000  H
  H17      1.0000 0.15280  0.15000  0.70670  Biso   1.000  H
  H18      1.0000 0.84720  0.35000  0.20670  Biso   1.000  H
  H19      1.0000 0.84720  0.85000  0.29330  Biso   1.000  H
  H20      1.0000 0.15280  0.65000  0.79330  Biso   1.000  H
  H21      1.0000 0.99320  0.20950  0.66270  Biso   1.000  H
  H22      1.0000 0.00680  0.29050  0.16270  Biso   1.000  H
  H23      1.0000 0.00680  0.79050  0.33730  Biso   1.000  H
  H24      1.0000 0.99320  0.70950  0.83730  Biso   1.000  H
  H25      1.0000 0.73540  0.06460  0.78140  Biso   1.000  H
  H26      1.0000 0.26460  0.43540  0.28140  Biso   1.000  H
  H27      1.0000 0.26460  0.93540  0.21860  Biso   1.000  H
  H28      1.0000 0.73540  0.56460  0.71860  Biso   1.000  H
  H29      1.0000 0.96290  0.03160  0.78900  Biso   1.000  H
  H30      1.0000 0.03710  0.46840  0.28900  Biso   1.000  H
  H31      1.0000 0.03710  0.96840  0.21100  Biso   1.000  H
  H32      1.0000 0.96290  0.53160  0.71100  Biso   1.000  H
  H33      1.0000 0.62690  0.82560  0.54980  Biso   1.000  H
  H34      1.0000 0.37310  0.67440  0.04980  Biso   1.000  H
  H35      1.0000 0.37310  0.17440  0.45020  Biso   1.000  H
  H36      1.0000 0.62690  0.32560  0.95020  Biso   1.000  H
