data_image0
_cell_length_a       5.245
_cell_length_b       11.744
_cell_length_c       13.03
_cell_angle_alpha    90
_cell_angle_beta     94.45
_cell_angle_gamma    90

_symmetry_space_group_name_H-M    "P 1"
_symmetry_int_tables_number       1

loop_
  _symmetry_equiv_pos_as_xyz
  'x, y, z'

loop_
  _atom_site_label
  _atom_site_occupancy
  _atom_site_fract_x
  _atom_site_fract_y
  _atom_site_fract_z
  _atom_site_thermal_displace_type
  _atom_site_B_iso_or_equiv
  _atom_site_type_symbol
  Co1      1.0000 0.56872  0.25000  0.41343  Biso   1.000  Co
  Co2      1.0000 0.43128  0.75000  0.58657  Biso   1.000  Co
  Cl1      0.5000 0.90110  0.93490  0.00270  Biso   1.000  Cl
  Cl2      0.5000 0.09890  0.06510  0.99730  Biso   1.000  Cl
  Cl3      0.5000 0.09890  0.43490  0.99730  Biso   1.000  Cl
  Cl4      0.5000 0.90110  0.56510  0.00270  Biso   1.000  Cl
  O1       1.0000 0.31190  0.38320  0.36900  Biso   1.000  O
  O2       1.0000 0.68810  0.61680  0.63100  Biso   1.000  O
  O3       1.0000 0.68810  0.88320  0.63100  Biso   1.000  O
  O4       1.0000 0.31190  0.11680  0.36900  Biso   1.000  O
  O5       1.0000 0.56270  0.53730  0.37030  Biso   1.000  O
  O6       1.0000 0.43730  0.46270  0.62970  Biso   1.000  O
  O7       1.0000 0.43730  0.03730  0.62970  Biso   1.000  O
  O8       1.0000 0.56270  0.96270  0.37030  Biso   1.000  O
  O9       0.5000 0.79800  0.82940  0.01100  Biso   1.000  O
  O10      0.5000 0.20200  0.17060  0.98900  Biso   1.000  O
  O11      0.5000 0.20200  0.32940  0.98900  Biso   1.000  O
  O12      0.5000 0.79800  0.67060  0.01100  Biso   1.000  O
  O13      1.0000 0.71570  0.25000  0.27230  Biso   1.000  O
  O14      1.0000 0.28430  0.75000  0.72770  Biso   1.000  O
  H1       1.0000 0.71600  0.19090  0.23450  Biso   1.000  H
  H2       1.0000 0.28400  0.80910  0.76550  Biso   1.000  H
  H3       1.0000 0.28400  0.69090  0.76550  Biso   1.000  H
  H4       1.0000 0.71600  0.30910  0.23450  Biso   1.000  H
  O15      1.0000 0.38900  0.25000  0.55090  Biso   1.000  O
  O16      1.0000 0.61100  0.75000  0.44910  Biso   1.000  O
  H5       1.0000 0.32300  0.30910  0.57600  Biso   1.000  H
  H6       1.0000 0.67700  0.69090  0.42400  Biso   1.000  H
  H7       1.0000 0.67700  0.80910  0.42400  Biso   1.000  H
  H8       1.0000 0.32300  0.19090  0.57600  Biso   1.000  H
  O17      1.0000 0.84370  0.12650  0.47070  Biso   1.000  O
  O18      1.0000 0.15630  0.87350  0.52930  Biso   1.000  O
  O19      1.0000 0.15630  0.62650  0.52930  Biso   1.000  O
  O20      1.0000 0.84370  0.37350  0.47070  Biso   1.000  O
  H9       1.0000 0.79300  0.06100  0.45100  Biso   1.000  H
  H10      1.0000 0.20700  0.93900  0.54900  Biso   1.000  H
  H11      1.0000 0.20700  0.56100  0.54900  Biso   1.000  H
  H12      1.0000 0.79300  0.43900  0.45100  Biso   1.000  H
  H13      1.0000 0.00300  0.13300  0.46200  Biso   1.000  H
  H14      1.0000 0.99700  0.86700  0.53800  Biso   1.000  H
  H15      1.0000 0.99700  0.63300  0.53800  Biso   1.000  H
  H16      1.0000 0.00300  0.36700  0.46200  Biso   1.000  H
  O21      1.0000 0.60200  0.07970  0.13340  Biso   1.000  O
  O22      1.0000 0.39800  0.92030  0.86660  Biso   1.000  O
  O23      1.0000 0.39800  0.57970  0.86660  Biso   1.000  O
  O24      1.0000 0.60200  0.42030  0.13340  Biso   1.000  O
  H17      1.0000 0.72500  0.05100  0.10300  Biso   1.000  H
  H18      1.0000 0.27500  0.94900  0.89700  Biso   1.000  H
  H19      1.0000 0.27500  0.55100  0.89700  Biso   1.000  H
  H20      1.0000 0.72500  0.44900  0.10300  Biso   1.000  H
  H21      1.0000 0.52900  0.13100  0.09500  Biso   1.000  H
  H22      1.0000 0.47100  0.86900  0.90500  Biso   1.000  H
  H23      1.0000 0.47100  0.63100  0.90500  Biso   1.000  H
  H24      1.0000 0.52900  0.36900  0.09500  Biso   1.000  H
  N1       1.0000 0.20930  0.65810  0.24970  Biso   1.000  N
  N2       1.0000 0.79070  0.34190  0.75030  Biso   1.000  N
  N3       1.0000 0.79070  0.15810  0.75030  Biso   1.000  N
  N4       1.0000 0.20930  0.84190  0.24970  Biso   1.000  N
  C1       1.0000 0.36050  0.48330  0.34400  Biso   1.000  C
  C2       1.0000 0.63950  0.51670  0.65600  Biso   1.000  C
  C3       1.0000 0.63950  0.98330  0.65600  Biso   1.000  C
  C4       1.0000 0.36050  0.01670  0.34400  Biso   1.000  C
  C5       1.0000 0.14990  0.54050  0.27590  Biso   1.000  C
  C6       1.0000 0.85010  0.45950  0.72410  Biso   1.000  C
  C7       1.0000 0.85010  0.04050  0.72410  Biso   1.000  C
  C8       1.0000 0.14990  0.95950  0.27590  Biso   1.000  C
  H25      1.0000 0.11970  0.49690  0.21290  Biso   1.000  H
  H26      1.0000 0.88030  0.50310  0.78710  Biso   1.000  H
  H27      1.0000 0.88030  0.99690  0.78710  Biso   1.000  H
  H28      1.0000 0.11970  0.00310  0.21290  Biso   1.000  H
  H29      1.0000 0.99340  0.53960  0.31100  Biso   1.000  H
  H30      1.0000 0.00660  0.46040  0.68900  Biso   1.000  H
  H31      1.0000 0.00660  0.03960  0.68900  Biso   1.000  H
  H32      1.0000 0.99340  0.96040  0.31100  Biso   1.000  H
  C9       1.0000 0.10980  0.75000  0.29040  Biso   1.000  C
  C10      1.0000 0.89020  0.25000  0.70960  Biso   1.000  C
  H33      1.0000 0.99010  0.75000  0.33940  Biso   1.000  H
  H34      1.0000 0.00990  0.25000  0.66060  Biso   1.000  H
  C11      1.0000 0.37990  0.69280  0.18120  Biso   1.000  C
  C12      1.0000 0.62010  0.30720  0.81880  Biso   1.000  C
  C13      1.0000 0.62010  0.19280  0.81880  Biso   1.000  C
  C14      1.0000 0.37990  0.80720  0.18120  Biso   1.000  C
  H35      1.0000 0.47730  0.64590  0.14200  Biso   1.000  H
  H36      1.0000 0.52270  0.35410  0.85800  Biso   1.000  H
  H37      1.0000 0.52270  0.14590  0.85800  Biso   1.000  H
  H38      1.0000 0.47730  0.85410  0.14200  Biso   1.000  H
