data_image0
_cell_length_a       9.5118
_cell_length_b       10.3092
_cell_length_c       11.6356
_cell_angle_alpha    105.046
_cell_angle_beta     102.427
_cell_angle_gamma    100.388

_symmetry_space_group_name_H-M    "P 1"
_symmetry_int_tables_number       1

loop_
  _symmetry_equiv_pos_as_xyz
  'x, y, z'

loop_
  _atom_site_label
  _atom_site_occupancy
  _atom_site_fract_x
  _atom_site_fract_y
  _atom_site_fract_z
  _atom_site_thermal_displace_type
  _atom_site_B_iso_or_equiv
  _atom_site_type_symbol
  Mo1      1.0000 0.13603  0.55057  0.43001  Biso   1.000  Mo
  Mo2      1.0000 0.86397  0.44943  0.56999  Biso   1.000  Mo
  Mo3      1.0000 0.23036  0.75248  0.74569  Biso   1.000  Mo
  Mo4      1.0000 0.76964  0.24752  0.25431  Biso   1.000  Mo
  Mo5      1.0000 0.07138  0.23710  0.44426  Biso   1.000  Mo
  Mo6      1.0000 0.92862  0.76290  0.55574  Biso   1.000  Mo
  Mo7      1.0000 0.43251  0.54122  0.64431  Biso   1.000  Mo
  Mo8      1.0000 0.56749  0.45878  0.35569  Biso   1.000  Mo
  Cu1      1.0000 0.18869  0.23830  0.18917  Biso   1.000  Cu
  Cu2      1.0000 0.81131  0.76170  0.81083  Biso   1.000  Cu
  O1       1.0000 0.30150  0.67070  0.55900  Biso   1.000  O
  O2       1.0000 0.69850  0.32930  0.44100  Biso   1.000  O
  O3       1.0000 0.19840  0.50590  0.30260  Biso   1.000  O
  O4       1.0000 0.80160  0.49410  0.69740  Biso   1.000  O
  O5       1.0000 0.96640  0.39600  0.39330  Biso   1.000  O
  O6       1.0000 0.03360  0.60400  0.60670  Biso   1.000  O
  O7       1.0000 0.21520  0.41430  0.51930  Biso   1.000  O
  O8       1.0000 0.78480  0.58570  0.48070  Biso   1.000  O
  O9       1.0000 0.03470  0.67150  0.40210  Biso   1.000  O
  O10      1.0000 0.96530  0.32850  0.59790  Biso   1.000  O
  O11      1.0000 0.12890  0.14680  0.54260  Biso   1.000  O
  O12      1.0000 0.87110  0.85320  0.45740  Biso   1.000  O
  O13      1.0000 0.39060  0.88390  0.80510  Biso   1.000  O
  O14      1.0000 0.60940  0.11610  0.19490  Biso   1.000  O
  O15      1.0000 0.14300  0.77290  0.86090  Biso   1.000  O
  O16      1.0000 0.85700  0.22710  0.13910  Biso   1.000  O
  O17      1.0000 0.12970  0.85280  0.64040  Biso   1.000  O
  O18      1.0000 0.87030  0.14720  0.35960  Biso   1.000  O
  O19      1.0000 0.30140  0.59770  0.75370  Biso   1.000  O
  O20      1.0000 0.69860  0.40230  0.24630  Biso   1.000  O
  O21      1.0000 0.14430  0.18000  0.31920  Biso   1.000  O
  O22      1.0000 0.85570  0.82000  0.68080  Biso   1.000  O
  O23      1.0000 0.57580  0.68510  0.72870  Biso   1.000  O
  O24      1.0000 0.42420  0.31490  0.27130  Biso   1.000  O
  O25      1.0000 0.46820  0.41290  0.70480  Biso   1.000  O
  O26      1.0000 0.53180  0.58710  0.29520  Biso   1.000  O
  O27      1.0000 0.50000  0.50000  0.50000  Biso   1.000  O
  N1       1.0000 0.16890  0.24970  0.01900  Biso   1.000  N
  N2       1.0000 0.83110  0.75030  0.98100  Biso   1.000  N
  N3       1.0000 0.14640  0.27520  0.80510  Biso   1.000  N
  N4       1.0000 0.85360  0.72480  0.19490  Biso   1.000  N
  C1       1.0000 0.31900  0.22900  0.98100  Biso   1.000  C
  C2       1.0000 0.68100  0.77100  0.01900  Biso   1.000  C
  C3       1.0000 0.30000  0.30600  0.86800  Biso   1.000  C
  C4       1.0000 0.70000  0.69400  0.13200  Biso   1.000  C
  C5       1.0000 0.09200  0.36300  0.99900  Biso   1.000  C
  C6       1.0000 0.90800  0.63700  0.00100  Biso   1.000  C
  C7       1.0000 0.16600  0.40300  0.88900  Biso   1.000  C
  C8       1.0000 0.83400  0.59700  0.11100  Biso   1.000  C
  C9       1.0000 0.06300  0.12790  0.92460  Biso   1.000  C
  C10      1.0000 0.93700  0.87210  0.07540  Biso   1.000  C
  H1       1.0000 0.10100  0.04640  0.92260  Biso   1.000  H
  H2       1.0000 0.89900  0.95360  0.07740  Biso   1.000  H
  H3       1.0000 0.96900  0.11260  0.94510  Biso   1.000  H
  H4       1.0000 0.03100  0.88740  0.05490  Biso   1.000  H
  C11      1.0000 0.03900  0.15040  0.79850  Biso   1.000  C
  C12      1.0000 0.96100  0.84960  0.20150  Biso   1.000  C
  H5       1.0000 0.93870  0.16010  0.77100  Biso   1.000  H
  H6       1.0000 0.06130  0.83990  0.22900  Biso   1.000  H
  H7       1.0000 0.05040  0.07040  0.73880  Biso   1.000  H
  H8       1.0000 0.94960  0.92960  0.26120  Biso   1.000  H
  O28      1.0000 0.43440  0.90690  0.53270  Biso   1.000  O
  O29      1.0000 0.56560  0.09310  0.46730  Biso   1.000  O
  O30      1.0000 0.67520  0.06330  0.90240  Biso   1.000  O
  O31      1.0000 0.32480  0.93670  0.09760  Biso   1.000  O
  C13      1.0000 0.86200  0.61400  0.97800  Biso   1.000  C
  C14      1.0000 0.13800  0.38600  0.02200  Biso   1.000  C
  C15      1.0000 0.91600  0.61000  0.11800  Biso   1.000  C
  C16      1.0000 0.08400  0.39000  0.88200  Biso   1.000  C
  C17      1.0000 0.68900  0.70600  0.00000  Biso   1.000  C
  C18      1.0000 0.31100  0.29400  0.00000  Biso   1.000  C
  C19      1.0000 0.71500  0.78100  0.15700  Biso   1.000  C
  C20      1.0000 0.28500  0.21900  0.84300  Biso   1.000  C
