data_image0
_cell_length_a       8.5204
_cell_length_b       18.8634
_cell_length_c       19.0742
_cell_angle_alpha    101.384
_cell_angle_beta     90
_cell_angle_gamma    90

_symmetry_space_group_name_H-M    "P 1"
_symmetry_int_tables_number       1

loop_
  _symmetry_equiv_pos_as_xyz
  'x, y, z'

loop_
  _atom_site_label
  _atom_site_occupancy
  _atom_site_fract_x
  _atom_site_fract_y
  _atom_site_fract_z
  _atom_site_thermal_displace_type
  _atom_site_B_iso_or_equiv
  _atom_site_type_symbol
  Fe1      1.0000 0.48472  0.33921  0.90065  Biso   1.000  Fe
  Fe2      1.0000 0.51528  0.83920  0.90065  Biso   1.000  Fe
  Fe3      1.0000 0.98472  0.33920  0.40065  Biso   1.000  Fe
  Fe4      1.0000 0.01528  0.83920  0.40065  Biso   1.000  Fe
  C1       1.0000 0.45430  0.35915  0.00295  Biso   1.000  C
  C2       1.0000 0.54570  0.85915  0.00295  Biso   1.000  C
  C3       1.0000 0.95430  0.35915  0.50295  Biso   1.000  C
  C4       1.0000 0.04570  0.85915  0.50295  Biso   1.000  C
  N1       1.0000 0.43179  0.36933  0.06387  Biso   1.000  N
  N2       1.0000 0.56821  0.86933  0.06387  Biso   1.000  N
  N3       1.0000 0.93179  0.36933  0.56387  Biso   1.000  N
  N4       1.0000 0.06821  0.86933  0.56387  Biso   1.000  N
  C5       1.0000 0.53520  0.30518  0.80058  Biso   1.000  C
  C6       1.0000 0.46480  0.80518  0.80058  Biso   1.000  C
  C7       1.0000 0.03520  0.30518  0.30058  Biso   1.000  C
  C8       1.0000 0.96480  0.80518  0.30058  Biso   1.000  C
  N5       1.0000 0.57440  0.28922  0.74176  Biso   1.000  N
  N6       1.0000 0.42560  0.78922  0.74176  Biso   1.000  N
  N7       1.0000 0.07440  0.28922  0.24176  Biso   1.000  N
  N8       1.0000 0.92560  0.78922  0.24176  Biso   1.000  N
  C9       1.0000 0.29390  0.28160  0.88919  Biso   1.000  C
  C10      1.0000 0.70610  0.78160  0.88919  Biso   1.000  C
  C11      1.0000 0.79390  0.28160  0.38919  Biso   1.000  C
  C12      1.0000 0.20610  0.78160  0.38919  Biso   1.000  C
  N9       1.0000 0.18167  0.24743  0.88160  Biso   1.000  N
  N10      1.0000 0.81833  0.74743  0.88160  Biso   1.000  N
  N11      1.0000 0.68167  0.24743  0.38160  Biso   1.000  N
  N12      1.0000 0.31833  0.74743  0.38160  Biso   1.000  N
  C13      1.0000 0.58620  0.25091  0.91536  Biso   1.000  C
  C14      1.0000 0.41380  0.75091  0.91536  Biso   1.000  C
  C15      1.0000 0.08620  0.25091  0.41536  Biso   1.000  C
  C16      1.0000 0.91380  0.75091  0.41536  Biso   1.000  C
  N13      1.0000 0.64660  0.19912  0.92469  Biso   1.000  N
  N14      1.0000 0.35340  0.69912  0.92469  Biso   1.000  N
  N15      1.0000 0.14660  0.19912  0.42469  Biso   1.000  N
  N16      1.0000 0.85340  0.69912  0.42469  Biso   1.000  N
  C17      1.0000 0.69330  0.38109  0.91242  Biso   1.000  C
  C18      1.0000 0.30670  0.88109  0.91242  Biso   1.000  C
  C19      1.0000 0.19330  0.38109  0.41242  Biso   1.000  C
  C20      1.0000 0.80670  0.88109  0.41242  Biso   1.000  C
  N17      1.0000 0.81570  0.40705  0.91792  Biso   1.000  N
  N18      1.0000 0.18430  0.90705  0.91792  Biso   1.000  N
  N19      1.0000 0.31570  0.40705  0.41792  Biso   1.000  N
  N20      1.0000 0.68430  0.90705  0.41792  Biso   1.000  N
  N21      1.0000 0.40220  0.41538  0.88816  Biso   1.000  N
  N22      1.0000 0.59780  0.91538  0.88816  Biso   1.000  N
  N23      1.0000 0.90220  0.41538  0.38816  Biso   1.000  N
  N24      1.0000 0.09780  0.91538  0.38816  Biso   1.000  N
  O1       1.0000 0.35078  0.46839  0.87881  Biso   1.000  O
  O2       1.0000 0.64922  0.96839  0.87881  Biso   1.000  O
  O3       1.0000 0.85078  0.46839  0.37881  Biso   1.000  O
  O4       1.0000 0.14922  0.96839  0.37881  Biso   1.000  O
  Cu1      1.0000 0.25483  0.33060  0.15003  Biso   1.000  Cu
  Cu2      1.0000 0.74517  0.83059  0.15003  Biso   1.000  Cu
  Cu3      1.0000 0.75483  0.33060  0.65003  Biso   1.000  Cu
  Cu4      1.0000 0.24517  0.83059  0.65003  Biso   1.000  Cu
  N25      1.0000 0.30958  0.41322  0.23456  Biso   1.000  N
  N26      1.0000 0.69042  0.91322  0.23456  Biso   1.000  N
  N27      1.0000 0.80958  0.41322  0.73456  Biso   1.000  N
  N28      1.0000 0.19042  0.91322  0.73456  Biso   1.000  N
  H1       1.0000 0.25610  0.40140  0.27190  Biso   1.000  H
  H2       1.0000 0.74390  0.90140  0.27190  Biso   1.000  H
  H3       1.0000 0.75610  0.40140  0.77190  Biso   1.000  H
  H4       1.0000 0.24390  0.90140  0.77190  Biso   1.000  H
  N29      1.0000 0.08946  0.39912  0.12653  Biso   1.000  N
  N30      1.0000 0.91054  0.89912  0.12653  Biso   1.000  N
  N31      1.0000 0.58946  0.39912  0.62653  Biso   1.000  N
  N32      1.0000 0.41054  0.89912  0.62653  Biso   1.000  N
  H5       1.0000 0.12910  0.42000  0.09120  Biso   1.000  H
  H6       1.0000 0.87090  0.92000  0.09120  Biso   1.000  H
  H7       1.0000 0.62910  0.42000  0.59120  Biso   1.000  H
  H8       1.0000 0.37090  0.92000  0.59120  Biso   1.000  H
  N33      1.0000 0.19738  0.24699  0.06719  Biso   1.000  N
  N34      1.0000 0.80262  0.74699  0.06719  Biso   1.000  N
  N35      1.0000 0.69738  0.24699  0.56719  Biso   1.000  N
  N36      1.0000 0.30262  0.74699  0.56719  Biso   1.000  N
  H9       1.0000 0.25020  0.25800  0.02930  Biso   1.000  H
  H10      1.0000 0.74980  0.75800  0.02930  Biso   1.000  H
  H11      1.0000 0.75020  0.25800  0.52930  Biso   1.000  H
  H12      1.0000 0.24980  0.75800  0.52930  Biso   1.000  H
  N37      1.0000 0.41897  0.26167  0.17470  Biso   1.000  N
  N38      1.0000 0.58103  0.76167  0.17470  Biso   1.000  N
  N39      1.0000 0.91897  0.26167  0.67470  Biso   1.000  N
  N40      1.0000 0.08103  0.76167  0.67470  Biso   1.000  N
  H13      1.0000 0.37860  0.24140  0.21030  Biso   1.000  H
  H14      1.0000 0.62140  0.74140  0.21030  Biso   1.000  H
  H15      1.0000 0.87860  0.24140  0.71030  Biso   1.000  H
  H16      1.0000 0.12140  0.74140  0.71030  Biso   1.000  H
  C21      1.0000 0.22880  0.47987  0.22247  Biso   1.000  C
  C22      1.0000 0.77120  0.97987  0.22247  Biso   1.000  C
  C23      1.0000 0.72880  0.47987  0.72247  Biso   1.000  C
  C24      1.0000 0.27120  0.97987  0.72247  Biso   1.000  C
  H17      1.0000 0.28940  0.49970  0.18710  Biso   1.000  H
  H18      1.0000 0.71060  0.99970  0.18710  Biso   1.000  H
  H19      1.0000 0.78940  0.49970  0.68710  Biso   1.000  H
  H20      1.0000 0.21060  0.99970  0.68710  Biso   1.000  H
  C25      1.0000 0.21360  0.53898  0.29024  Biso   1.000  C
  C26      1.0000 0.78640  0.03898  0.29024  Biso   1.000  C
  C27      1.0000 0.71360  0.53898  0.79024  Biso   1.000  C
  C28      1.0000 0.28640  0.03898  0.79024  Biso   1.000  C
  H21      1.0000 0.16020  0.51930  0.32710  Biso   1.000  H
  H22      1.0000 0.83980  0.01930  0.32710  Biso   1.000  H
  H23      1.0000 0.66020  0.51930  0.82710  Biso   1.000  H
  H24      1.0000 0.33980  0.01930  0.82710  Biso   1.000  H
  H25      1.0000 0.31740  0.55430  0.30780  Biso   1.000  H
  H26      1.0000 0.68260  0.05430  0.30780  Biso   1.000  H
  H27      1.0000 0.81740  0.55430  0.80780  Biso   1.000  H
  H28      1.0000 0.18260  0.05430  0.80780  Biso   1.000  H
  C29      1.0000 0.12240  0.60432  0.27582  Biso   1.000  C
  C30      1.0000 0.87760  0.10432  0.27582  Biso   1.000  C
  C31      1.0000 0.62240  0.60432  0.77582  Biso   1.000  C
  C32      1.0000 0.37760  0.10432  0.77582  Biso   1.000  C
  H29      1.0000 0.10780  0.63860  0.32040  Biso   1.000  H
  H30      1.0000 0.89220  0.13860  0.32040  Biso   1.000  H
  H31      1.0000 0.60780  0.63860  0.82040  Biso   1.000  H
  H32      1.0000 0.39220  0.13860  0.82040  Biso   1.000  H
  H33      1.0000 0.18300  0.62800  0.24400  Biso   1.000  H
  H34      1.0000 0.81700  0.12800  0.24400  Biso   1.000  H
  H35      1.0000 0.68300  0.62800  0.74400  Biso   1.000  H
  H36      1.0000 0.31700  0.12800  0.74400  Biso   1.000  H
  C33      1.0000 0.96270  0.58285  0.24226  Biso   1.000  C
  C34      1.0000 0.03730  0.08285  0.24226  Biso   1.000  C
  C35      1.0000 0.46270  0.58285  0.74226  Biso   1.000  C
  C36      1.0000 0.53730  0.08285  0.74226  Biso   1.000  C
  H37      1.0000 0.91200  0.62500  0.23030  Biso   1.000  H
  H38      1.0000 0.08800  0.12500  0.23030  Biso   1.000  H
  H39      1.0000 0.41200  0.62500  0.73030  Biso   1.000  H
  H40      1.0000 0.58800  0.12500  0.73030  Biso   1.000  H
  H41      1.0000 0.89670  0.56490  0.27640  Biso   1.000  H
  H42      1.0000 0.10330  0.06490  0.27640  Biso   1.000  H
  H43      1.0000 0.39670  0.56490  0.77640  Biso   1.000  H
  H44      1.0000 0.60330  0.06490  0.77640  Biso   1.000  H
  C37      1.0000 0.98080  0.52420  0.17448  Biso   1.000  C
  C38      1.0000 0.01920  0.02420  0.17448  Biso   1.000  C
  C39      1.0000 0.48080  0.52420  0.67448  Biso   1.000  C
  C40      1.0000 0.51920  0.02420  0.67448  Biso   1.000  C
  H45      1.0000 0.87790  0.50990  0.15490  Biso   1.000  H
  H46      1.0000 0.12210  0.00990  0.15490  Biso   1.000  H
  H47      1.0000 0.37790  0.50990  0.65490  Biso   1.000  H
  H48      1.0000 0.62210  0.00990  0.65490  Biso   1.000  H
  H49      1.0000 0.03920  0.54360  0.13890  Biso   1.000  H
  H50      1.0000 0.96080  0.04360  0.13890  Biso   1.000  H
  H51      1.0000 0.53920  0.54360  0.63890  Biso   1.000  H
  H52      1.0000 0.46080  0.04360  0.63890  Biso   1.000  H
  C41      1.0000 0.06640  0.45804  0.19056  Biso   1.000  C
  C42      1.0000 0.93360  0.95804  0.19056  Biso   1.000  C
  C43      1.0000 0.56640  0.45804  0.69056  Biso   1.000  C
  C44      1.0000 0.43360  0.95804  0.69056  Biso   1.000  C
  H53      1.0000 0.00510  0.43860  0.22600  Biso   1.000  H
  H54      1.0000 0.99490  0.93860  0.22600  Biso   1.000  H
  H55      1.0000 0.50510  0.43860  0.72600  Biso   1.000  H
  H56      1.0000 0.49490  0.93860  0.72600  Biso   1.000  H
  C45      1.0000 0.93830  0.36416  0.09983  Biso   1.000  C
  C46      1.0000 0.06170  0.86416  0.09983  Biso   1.000  C
  C47      1.0000 0.43830  0.36416  0.59983  Biso   1.000  C
  C48      1.0000 0.56170  0.86416  0.59983  Biso   1.000  C
  H57      1.0000 0.86560  0.40080  0.09050  Biso   1.000  H
  H58      1.0000 0.13440  0.90080  0.09050  Biso   1.000  H
  H59      1.0000 0.36560  0.40080  0.59050  Biso   1.000  H
  H60      1.0000 0.63440  0.90080  0.59050  Biso   1.000  H
  H61      1.0000 0.89260  0.34130  0.13630  Biso   1.000  H
  H62      1.0000 0.10740  0.84130  0.13630  Biso   1.000  H
  H63      1.0000 0.39260  0.34130  0.63630  Biso   1.000  H
  H64      1.0000 0.60740  0.84130  0.63630  Biso   1.000  H
  C49      1.0000 0.96220  0.30774  0.03160  Biso   1.000  C
  C50      1.0000 0.03780  0.80774  0.03160  Biso   1.000  C
  C51      1.0000 0.46220  0.30774  0.53160  Biso   1.000  C
  C52      1.0000 0.53780  0.80774  0.53160  Biso   1.000  C
  H65      1.0000 0.03020  0.32840  0.00010  Biso   1.000  H
  H66      1.0000 0.96980  0.82840  0.00010  Biso   1.000  H
  H67      1.0000 0.53020  0.32840  0.50010  Biso   1.000  H
  H68      1.0000 0.46980  0.82840  0.50010  Biso   1.000  H
  H69      1.0000 0.86150  0.29840  0.00790  Biso   1.000  H
  H70      1.0000 0.13850  0.79840  0.00790  Biso   1.000  H
  H71      1.0000 0.36150  0.29840  0.50790  Biso   1.000  H
  H72      1.0000 0.63850  0.79840  0.50790  Biso   1.000  H
  C53      1.0000 0.03200  0.23546  0.04024  Biso   1.000  C
  C54      1.0000 0.96800  0.73546  0.04024  Biso   1.000  C
  C55      1.0000 0.53200  0.23546  0.54024  Biso   1.000  C
  C56      1.0000 0.46800  0.73546  0.54024  Biso   1.000  C
  H73      1.0000 0.03720  0.20470  0.99250  Biso   1.000  H
  H74      1.0000 0.96280  0.70470  0.99250  Biso   1.000  H
  H75      1.0000 0.53720  0.20470  0.49250  Biso   1.000  H
  H76      1.0000 0.46280  0.70470  0.49250  Biso   1.000  H
  C57      1.0000 0.93030  0.19637  0.08621  Biso   1.000  C
  C58      1.0000 0.06970  0.69637  0.08621  Biso   1.000  C
  C59      1.0000 0.43030  0.19637  0.58621  Biso   1.000  C
  C60      1.0000 0.56970  0.69637  0.58621  Biso   1.000  C
  H77      1.0000 0.96900  0.14810  0.08330  Biso   1.000  H
  H78      1.0000 0.03100  0.64810  0.08330  Biso   1.000  H
  H79      1.0000 0.46900  0.14810  0.58330  Biso   1.000  H
  H80      1.0000 0.53100  0.64810  0.58330  Biso   1.000  H
  H81      1.0000 0.82400  0.19450  0.06930  Biso   1.000  H
  H82      1.0000 0.17600  0.69450  0.06930  Biso   1.000  H
  H83      1.0000 0.32400  0.19450  0.56930  Biso   1.000  H
  H84      1.0000 0.67600  0.69450  0.56930  Biso   1.000  H
  H85      1.0000 0.93390  0.22190  0.13500  Biso   1.000  H
  H86      1.0000 0.06610  0.72190  0.13500  Biso   1.000  H
  H87      1.0000 0.43390  0.22190  0.63500  Biso   1.000  H
  H88      1.0000 0.56610  0.72190  0.63500  Biso   1.000  H
  C61      1.0000 0.27780  0.18046  0.07989  Biso   1.000  C
  C62      1.0000 0.72220  0.68046  0.07989  Biso   1.000  C
  C63      1.0000 0.77780  0.18046  0.57989  Biso   1.000  C
  C64      1.0000 0.22220  0.68046  0.57989  Biso   1.000  C
  H89      1.0000 0.21760  0.16140  0.11580  Biso   1.000  H
  H90      1.0000 0.78240  0.66140  0.11580  Biso   1.000  H
  H91      1.0000 0.71760  0.16140  0.61580  Biso   1.000  H
  H92      1.0000 0.28240  0.66140  0.61580  Biso   1.000  H
  C65      1.0000 0.28980  0.12099  0.01270  Biso   1.000  C
  C66      1.0000 0.71020  0.62099  0.01270  Biso   1.000  C
  C67      1.0000 0.78980  0.12099  0.51270  Biso   1.000  C
  C68      1.0000 0.21020  0.62099  0.51270  Biso   1.000  C
  H93      1.0000 0.34330  0.13970  0.97530  Biso   1.000  H
  H94      1.0000 0.65670  0.63970  0.97530  Biso   1.000  H
  H95      1.0000 0.84330  0.13970  0.47530  Biso   1.000  H
  H96      1.0000 0.15670  0.63970  0.47530  Biso   1.000  H
  H97      1.0000 0.18530  0.10610  0.99570  Biso   1.000  H
  H98      1.0000 0.81470  0.60610  0.99570  Biso   1.000  H
  H99      1.0000 0.68530  0.10610  0.49570  Biso   1.000  H
  H100     1.0000 0.31470  0.60610  0.49570  Biso   1.000  H
  C69      1.0000 0.37980  0.05559  0.02846  Biso   1.000  C
  C70      1.0000 0.62020  0.55559  0.02846  Biso   1.000  C
  C71      1.0000 0.87980  0.05559  0.52846  Biso   1.000  C
  C72      1.0000 0.12020  0.55559  0.52846  Biso   1.000  C
  H101     1.0000 0.32010  0.03360  0.06190  Biso   1.000  H
  H102     1.0000 0.67990  0.53360  0.06190  Biso   1.000  H
  H103     1.0000 0.82010  0.03360  0.56190  Biso   1.000  H
  H104     1.0000 0.17990  0.53360  0.56190  Biso   1.000  H
  H105     1.0000 0.39190  0.01990  0.98460  Biso   1.000  H
  H106     1.0000 0.60810  0.51990  0.98460  Biso   1.000  H
  H107     1.0000 0.89190  0.01990  0.48460  Biso   1.000  H
  H108     1.0000 0.10810  0.51990  0.48460  Biso   1.000  H
  C73      1.0000 0.54130  0.07746  0.05996  Biso   1.000  C
  C74      1.0000 0.45870  0.57746  0.05996  Biso   1.000  C
  C75      1.0000 0.04130  0.07746  0.55996  Biso   1.000  C
  C76      1.0000 0.95870  0.57746  0.55996  Biso   1.000  C
  H109     1.0000 0.60490  0.09490  0.02480  Biso   1.000  H
  H110     1.0000 0.39510  0.59490  0.02480  Biso   1.000  H
  H111     1.0000 0.10490  0.09490  0.52480  Biso   1.000  H
  H112     1.0000 0.89510  0.59490  0.52480  Biso   1.000  H
  H113     1.0000 0.59320  0.03560  0.07180  Biso   1.000  H
  H114     1.0000 0.40680  0.53560  0.07180  Biso   1.000  H
  H115     1.0000 0.09320  0.03560  0.57180  Biso   1.000  H
  H116     1.0000 0.90680  0.53560  0.57180  Biso   1.000  H
  C77      1.0000 0.52710  0.13658  0.12720  Biso   1.000  C
  C78      1.0000 0.47290  0.63658  0.12720  Biso   1.000  C
  C79      1.0000 0.02710  0.13658  0.62720  Biso   1.000  C
  C80      1.0000 0.97290  0.63658  0.62720  Biso   1.000  C
  H117     1.0000 0.63100  0.15110  0.14530  Biso   1.000  H
  H118     1.0000 0.36900  0.65110  0.14530  Biso   1.000  H
  H119     1.0000 0.13100  0.15110  0.64530  Biso   1.000  H
  H120     1.0000 0.86900  0.65110  0.64530  Biso   1.000  H
  H121     1.0000 0.47120  0.11770  0.16390  Biso   1.000  H
  H122     1.0000 0.52880  0.61770  0.16390  Biso   1.000  H
  H123     1.0000 0.97120  0.11770  0.66390  Biso   1.000  H
  H124     1.0000 0.02880  0.61770  0.66390  Biso   1.000  H
  C81      1.0000 0.43920  0.20249  0.11093  Biso   1.000  C
  C82      1.0000 0.56080  0.70249  0.11093  Biso   1.000  C
  C83      1.0000 0.93920  0.20249  0.61093  Biso   1.000  C
  C84      1.0000 0.06080  0.70249  0.61093  Biso   1.000  C
  H125     1.0000 0.49950  0.22160  0.07500  Biso   1.000  H
  H126     1.0000 0.50050  0.72160  0.07500  Biso   1.000  H
  H127     1.0000 0.99950  0.22160  0.57500  Biso   1.000  H
  H128     1.0000 0.00050  0.72160  0.57500  Biso   1.000  H
  C85      1.0000 0.56870  0.29671  0.20120  Biso   1.000  C
  C86      1.0000 0.43130  0.79671  0.20120  Biso   1.000  C
  C87      1.0000 0.06870  0.29671  0.70120  Biso   1.000  C
  C88      1.0000 0.93130  0.79671  0.70120  Biso   1.000  C
  H129     1.0000 0.61360  0.32000  0.16490  Biso   1.000  H
  H130     1.0000 0.38640  0.82000  0.16490  Biso   1.000  H
  H131     1.0000 0.11360  0.32000  0.66490  Biso   1.000  H
  H132     1.0000 0.88640  0.82000  0.66490  Biso   1.000  H
  H133     1.0000 0.64200  0.26020  0.21020  Biso   1.000  H
  H134     1.0000 0.35800  0.76020  0.21020  Biso   1.000  H
  H135     1.0000 0.14200  0.26020  0.71020  Biso   1.000  H
  H136     1.0000 0.85800  0.76020  0.71020  Biso   1.000  H
  C89      1.0000 0.54450  0.35295  0.27005  Biso   1.000  C
  C90      1.0000 0.45550  0.85295  0.27005  Biso   1.000  C
  C91      1.0000 0.04450  0.35295  0.77005  Biso   1.000  C
  C92      1.0000 0.95550  0.85295  0.77005  Biso   1.000  C
  H137     1.0000 0.47680  0.33190  0.30140  Biso   1.000  H
  H138     1.0000 0.52320  0.83190  0.30140  Biso   1.000  H
  H139     1.0000 0.97680  0.33190  0.80140  Biso   1.000  H
  H140     1.0000 0.02320  0.83190  0.80140  Biso   1.000  H
  H141     1.0000 0.64530  0.36210  0.29370  Biso   1.000  H
  H142     1.0000 0.35470  0.86210  0.29370  Biso   1.000  H
  H143     1.0000 0.14530  0.36210  0.79370  Biso   1.000  H
  H144     1.0000 0.85470  0.86210  0.79370  Biso   1.000  H
  C93      1.0000 0.47470  0.42531  0.26247  Biso   1.000  C
  C94      1.0000 0.52530  0.92531  0.26247  Biso   1.000  C
  C95      1.0000 0.97470  0.42531  0.76247  Biso   1.000  C
  C96      1.0000 0.02530  0.92531  0.76247  Biso   1.000  C
  H145     1.0000 0.46820  0.45540  0.31050  Biso   1.000  H
  H146     1.0000 0.53180  0.95540  0.31050  Biso   1.000  H
  H147     1.0000 0.96820  0.45540  0.81050  Biso   1.000  H
  H148     1.0000 0.03180  0.95540  0.81050  Biso   1.000  H
  C97      1.0000 0.57540  0.46591  0.21741  Biso   1.000  C
  C98      1.0000 0.42460  0.96591  0.21741  Biso   1.000  C
  C99      1.0000 0.07540  0.46591  0.71741  Biso   1.000  C
  C100     1.0000 0.92460  0.96591  0.71741  Biso   1.000  C
  H149     1.0000 0.56440  0.44390  0.16780  Biso   1.000  H
  H150     1.0000 0.43560  0.94390  0.16780  Biso   1.000  H
  H151     1.0000 0.06440  0.44390  0.66780  Biso   1.000  H
  H152     1.0000 0.93560  0.94390  0.66780  Biso   1.000  H
  H153     1.0000 0.68340  0.46400  0.23130  Biso   1.000  H
  H154     1.0000 0.31660  0.96400  0.23130  Biso   1.000  H
  H155     1.0000 0.18340  0.46400  0.73130  Biso   1.000  H
  H156     1.0000 0.81660  0.96400  0.73130  Biso   1.000  H
  H157     1.0000 0.54200  0.51540  0.22480  Biso   1.000  H
  H158     1.0000 0.45800  0.01540  0.22480  Biso   1.000  H
  H159     1.0000 0.04200  0.51540  0.72480  Biso   1.000  H
  H160     1.0000 0.95800  0.01540  0.72480  Biso   1.000  H
  O5       1.0000 0.90944  0.18298  0.80448  Biso   1.000  O
  O6       1.0000 0.09056  0.68298  0.80448  Biso   1.000  O
  O7       1.0000 0.40944  0.18298  0.30448  Biso   1.000  O
  O8       1.0000 0.59056  0.68298  0.30448  Biso   1.000  O
  O9       1.0000 0.59548  0.46987  0.49369  Biso   1.000  O
  O10      1.0000 0.40452  0.96987  0.49369  Biso   1.000  O
  O11      1.0000 0.09548  0.46987  0.99369  Biso   1.000  O
  O12      1.0000 0.90452  0.96987  0.99369  Biso   1.000  O
  O13      1.0000 0.37868  0.08613  0.41759  Biso   1.000  O
  O14      1.0000 0.62132  0.58613  0.41759  Biso   1.000  O
  O15      1.0000 0.87868  0.08613  0.91759  Biso   1.000  O
  O16      1.0000 0.12132  0.58613  0.91759  Biso   1.000  O
