data_image0
_cell_length_a       6.7607
_cell_length_b       9.2496
_cell_length_c       26.1445
_cell_angle_alpha    90
_cell_angle_beta     90
_cell_angle_gamma    90

_symmetry_space_group_name_H-M    "P 1"
_symmetry_int_tables_number       1

loop_
  _symmetry_equiv_pos_as_xyz
  'x, y, z'

loop_
  _atom_site_label
  _atom_site_occupancy
  _atom_site_fract_x
  _atom_site_fract_y
  _atom_site_fract_z
  _atom_site_thermal_displace_type
  _atom_site_B_iso_or_equiv
  _atom_site_type_symbol
  Mo1      1.0000 0.25088  0.53461  0.11294  Biso   1.000  Mo
  Mo2      1.0000 0.74912  0.03461  0.38705  Biso   1.000  Mo
  Mo3      1.0000 0.75088  0.96539  0.88706  Biso   1.000  Mo
  Mo4      1.0000 0.24912  0.46539  0.61294  Biso   1.000  Mo
  V1       1.0000 0.75150  0.41151  0.13924  Biso   1.000  V
  V2       1.0000 0.24850  0.91151  0.36076  Biso   1.000  V
  V3       1.0000 0.25150  0.08849  0.86076  Biso   1.000  V
  V4       1.0000 0.74850  0.58849  0.63924  Biso   1.000  V
  O1       1.0000 0.74510  0.24260  0.15297  Biso   1.000  O
  O2       1.0000 0.25490  0.74260  0.34703  Biso   1.000  O
  O3       1.0000 0.24510  0.25740  0.84703  Biso   1.000  O
  O4       1.0000 0.75490  0.75740  0.65297  Biso   1.000  O
  O5       1.0000 0.03910  0.44010  0.13720  Biso   1.000  O
  O6       1.0000 0.96090  0.94010  0.36280  Biso   1.000  O
  O7       1.0000 0.53910  0.05990  0.86280  Biso   1.000  O
  O8       1.0000 0.46090  0.55990  0.63720  Biso   1.000  O
  O9       1.0000 0.46420  0.44080  0.13640  Biso   1.000  O
  O10      1.0000 0.53580  0.94080  0.36360  Biso   1.000  O
  O11      1.0000 0.96420  0.05920  0.86360  Biso   1.000  O
  O12      1.0000 0.03580  0.55920  0.63640  Biso   1.000  O
  O13      1.0000 0.25160  0.71390  0.13009  Biso   1.000  O
  O14      1.0000 0.74840  0.21390  0.36991  Biso   1.000  O
  O15      1.0000 0.75160  0.78610  0.86991  Biso   1.000  O
  O16      1.0000 0.24840  0.28610  0.63009  Biso   1.000  O
  O17      1.0000 0.25360  0.52860  0.04663  Biso   1.000  O
  O18      1.0000 0.74640  0.02860  0.45337  Biso   1.000  O
  O19      1.0000 0.75360  0.97140  0.95337  Biso   1.000  O
  O20      1.0000 0.24640  0.47140  0.54663  Biso   1.000  O
  N1       1.0000 0.75380  0.43900  0.05765  Biso   1.000  N
  N2       1.0000 0.24620  0.93900  0.44235  Biso   1.000  N
  N3       1.0000 0.25380  0.06100  0.94235  Biso   1.000  N
  N4       1.0000 0.74620  0.56100  0.55765  Biso   1.000  N
  N5       1.0000 0.75600  0.64550  0.12505  Biso   1.000  N
  N6       1.0000 0.24400  0.14550  0.37495  Biso   1.000  N
  N7       1.0000 0.25600  0.85450  0.87495  Biso   1.000  N
  N8       1.0000 0.74400  0.35450  0.62505  Biso   1.000  N
  N9       1.0000 0.76260  0.51210  0.21223  Biso   1.000  N
  N10      1.0000 0.23740  0.01210  0.28777  Biso   1.000  N
  N11      1.0000 0.26260  0.98790  0.78777  Biso   1.000  N
  N12      1.0000 0.73740  0.48790  0.71223  Biso   1.000  N
  C1       1.0000 0.75300  0.32860  0.02464  Biso   1.000  C
  C2       1.0000 0.24700  0.82860  0.47536  Biso   1.000  C
  C3       1.0000 0.25300  0.17140  0.97536  Biso   1.000  C
  C4       1.0000 0.74700  0.67140  0.52464  Biso   1.000  C
  H1       1.0000 0.74710  0.23490  0.03740  Biso   1.000  H
  H2       1.0000 0.25290  0.73490  0.46260  Biso   1.000  H
  H3       1.0000 0.24710  0.26510  0.96260  Biso   1.000  H
  H4       1.0000 0.75290  0.76510  0.53740  Biso   1.000  H
  C5       1.0000 0.76000  0.34840  0.97190  Biso   1.000  C
  C6       1.0000 0.24000  0.84840  0.52810  Biso   1.000  C
  C7       1.0000 0.26000  0.15160  0.02810  Biso   1.000  C
  C8       1.0000 0.74000  0.65160  0.47190  Biso   1.000  C
  H5       1.0000 0.77890  0.27020  0.95010  Biso   1.000  H
  H6       1.0000 0.22110  0.77020  0.54990  Biso   1.000  H
  H7       1.0000 0.27890  0.22980  0.04990  Biso   1.000  H
  H8       1.0000 0.72110  0.72980  0.45010  Biso   1.000  H
  C9       1.0000 0.74000  0.48670  0.95275  Biso   1.000  C
  C10      1.0000 0.26000  0.98670  0.54725  Biso   1.000  C
  C11      1.0000 0.24000  0.01330  0.04725  Biso   1.000  C
  C12      1.0000 0.76000  0.51330  0.45275  Biso   1.000  C
  H9       1.0000 0.72230  0.50170  0.91790  Biso   1.000  H
  H10      1.0000 0.27770  0.00170  0.58210  Biso   1.000  H
  H11      1.0000 0.22230  0.99830  0.08210  Biso   1.000  H
  H12      1.0000 0.77770  0.49830  0.41790  Biso   1.000  H
  C13      1.0000 0.74500  0.60240  0.98609  Biso   1.000  C
  C14      1.0000 0.25500  0.10240  0.51391  Biso   1.000  C
  C15      1.0000 0.24500  0.89760  0.01391  Biso   1.000  C
  C16      1.0000 0.75500  0.39760  0.48609  Biso   1.000  C
  H13      1.0000 0.74220  0.69660  0.97370  Biso   1.000  H
  H14      1.0000 0.25780  0.19660  0.52630  Biso   1.000  H
  H15      1.0000 0.24220  0.80340  0.02630  Biso   1.000  H
  H16      1.0000 0.75780  0.30340  0.47370  Biso   1.000  H
  C17      1.0000 0.75400  0.57640  0.03822  Biso   1.000  C
  C18      1.0000 0.24600  0.07640  0.46178  Biso   1.000  C
  C19      1.0000 0.25400  0.92360  0.96178  Biso   1.000  C
  C20      1.0000 0.74600  0.42360  0.53822  Biso   1.000  C
  C21      1.0000 0.75700  0.69330  0.07722  Biso   1.000  C
  C22      1.0000 0.24300  0.19330  0.42278  Biso   1.000  C
  C23      1.0000 0.25700  0.80670  0.92278  Biso   1.000  C
  C24      1.0000 0.74300  0.30670  0.57722  Biso   1.000  C
  C25      1.0000 0.74400  0.84170  0.06654  Biso   1.000  C
  C26      1.0000 0.25600  0.34170  0.43346  Biso   1.000  C
  C27      1.0000 0.24400  0.65830  0.93346  Biso   1.000  C
  C28      1.0000 0.75600  0.15830  0.56654  Biso   1.000  C
  H17      1.0000 0.73360  0.87570  0.03320  Biso   1.000  H
  H18      1.0000 0.26640  0.37570  0.46680  Biso   1.000  H
  H19      1.0000 0.23360  0.62430  0.96680  Biso   1.000  H
  H20      1.0000 0.76640  0.12430  0.53320  Biso   1.000  H
  C29      1.0000 0.74700  0.93480  0.10781  Biso   1.000  C
  C30      1.0000 0.25300  0.43480  0.39219  Biso   1.000  C
  C31      1.0000 0.24700  0.56520  0.89219  Biso   1.000  C
  C32      1.0000 0.75300  0.06520  0.60781  Biso   1.000  C
  H21      1.0000 0.74620  0.03400  0.10200  Biso   1.000  H
  H22      1.0000 0.25380  0.53400  0.39800  Biso   1.000  H
  H23      1.0000 0.24620  0.46600  0.89800  Biso   1.000  H
  H24      1.0000 0.75380  0.96600  0.60200  Biso   1.000  H
  C33      1.0000 0.75200  0.88410  0.15778  Biso   1.000  C
  C34      1.0000 0.24800  0.38410  0.34222  Biso   1.000  C
  C35      1.0000 0.25200  0.61590  0.84222  Biso   1.000  C
  C36      1.0000 0.74800  0.11590  0.65778  Biso   1.000  C
  H25      1.0000 0.75700  0.94760  0.18540  Biso   1.000  H
  H26      1.0000 0.24300  0.44760  0.31460  Biso   1.000  H
  H27      1.0000 0.25700  0.55240  0.81460  Biso   1.000  H
  H28      1.0000 0.74300  0.05240  0.68540  Biso   1.000  H
  C37      1.0000 0.75400  0.65900  0.21514  Biso   1.000  C
  C38      1.0000 0.24600  0.15900  0.28486  Biso   1.000  C
  C39      1.0000 0.25400  0.84100  0.78486  Biso   1.000  C
  C40      1.0000 0.74600  0.34100  0.71514  Biso   1.000  C
  C41      1.0000 0.74100  0.72860  0.26209  Biso   1.000  C
  C42      1.0000 0.25900  0.22860  0.23791  Biso   1.000  C
  C43      1.0000 0.24100  0.77140  0.73791  Biso   1.000  C
  C44      1.0000 0.75900  0.27140  0.76209  Biso   1.000  C
  H29      1.0000 0.73200  0.82880  0.26360  Biso   1.000  H
  H30      1.0000 0.26800  0.32880  0.23640  Biso   1.000  H
  H31      1.0000 0.23200  0.67120  0.73640  Biso   1.000  H
  H32      1.0000 0.76800  0.17120  0.76360  Biso   1.000  H
  C45      1.0000 0.74100  0.64700  0.30676  Biso   1.000  C
  C46      1.0000 0.25900  0.14700  0.19324  Biso   1.000  C
  C47      1.0000 0.24100  0.85300  0.69324  Biso   1.000  C
  C48      1.0000 0.75900  0.35300  0.80676  Biso   1.000  C
  H33      1.0000 0.72690  0.69150  0.33850  Biso   1.000  H
  H34      1.0000 0.27310  0.19150  0.16150  Biso   1.000  H
  H35      1.0000 0.22690  0.80850  0.66150  Biso   1.000  H
  H36      1.0000 0.77310  0.30850  0.83850  Biso   1.000  H
  C49      1.0000 0.76200  0.49860  0.30332  Biso   1.000  C
  C50      1.0000 0.23800  0.99860  0.19668  Biso   1.000  C
  C51      1.0000 0.26200  0.00140  0.69668  Biso   1.000  C
  C52      1.0000 0.73800  0.50140  0.80332  Biso   1.000  C
  H37      1.0000 0.78360  0.44280  0.33240  Biso   1.000  H
  H38      1.0000 0.21640  0.94280  0.16760  Biso   1.000  H
  H39      1.0000 0.28360  0.05720  0.66760  Biso   1.000  H
  H40      1.0000 0.71640  0.55720  0.83240  Biso   1.000  H
  C53      1.0000 0.75120  0.43530  0.25554  Biso   1.000  C
  C54      1.0000 0.24880  0.93530  0.24446  Biso   1.000  C
  C55      1.0000 0.25120  0.06470  0.74446  Biso   1.000  C
  C56      1.0000 0.74880  0.56470  0.75554  Biso   1.000  C
  H41      1.0000 0.73510  0.33560  0.25340  Biso   1.000  H
  H42      1.0000 0.26490  0.83560  0.24660  Biso   1.000  H
  H43      1.0000 0.23510  0.16440  0.74660  Biso   1.000  H
  H44      1.0000 0.76490  0.66440  0.75340  Biso   1.000  H
  C57      1.0000 0.75100  0.73540  0.16520  Biso   1.000  C
  C58      1.0000 0.24900  0.23540  0.33480  Biso   1.000  C
  C59      1.0000 0.25100  0.76460  0.83480  Biso   1.000  C
  C60      1.0000 0.74900  0.26460  0.66520  Biso   1.000  C
