data_image0
_cell_length_a       10.25
_cell_length_b       14.64
_cell_length_c       16.58
_cell_angle_alpha    90
_cell_angle_beta     90
_cell_angle_gamma    104.63

_symmetry_space_group_name_H-M    "P 1"
_symmetry_int_tables_number       1

loop_
  _symmetry_equiv_pos_as_xyz
  'x, y, z'

loop_
  _atom_site_label
  _atom_site_occupancy
  _atom_site_fract_x
  _atom_site_fract_y
  _atom_site_fract_z
  _atom_site_thermal_displace_type
  _atom_site_B_iso_or_equiv
  _atom_site_type_symbol
  Sm1      1.0000 0.36556  0.79865  0.18607  Biso   1.000  Sm
  Sm2      1.0000 0.13444  0.20135  0.68607  Biso   1.000  Sm
  Sm3      1.0000 0.63444  0.20135  0.81393  Biso   1.000  Sm
  Sm4      1.0000 0.86556  0.79865  0.31393  Biso   1.000  Sm
  O1       1.0000 0.18010  0.69490  0.24250  Biso   1.000  O
  O2       1.0000 0.31990  0.30510  0.74250  Biso   1.000  O
  O3       1.0000 0.81990  0.30510  0.75750  Biso   1.000  O
  O4       1.0000 0.68010  0.69490  0.25750  Biso   1.000  O
  O5       1.0000 0.58300  0.91000  0.18370  Biso   1.000  O
  O6       1.0000 0.91700  0.09000  0.68370  Biso   1.000  O
  O7       1.0000 0.41700  0.09000  0.81630  Biso   1.000  O
  O8       1.0000 0.08300  0.91000  0.31630  Biso   1.000  O
  O9       1.0000 0.96520  0.67370  0.27680  Biso   1.000  O
  O10      1.0000 0.53480  0.32630  0.77680  Biso   1.000  O
  O11      1.0000 0.03480  0.32630  0.72320  Biso   1.000  O
  O12      1.0000 0.46520  0.67370  0.22320  Biso   1.000  O
  O13      1.0000 0.62940  0.10210  0.93800  Biso   1.000  O
  O14      1.0000 0.87060  0.89790  0.43800  Biso   1.000  O
  O15      1.0000 0.37060  0.89790  0.06200  Biso   1.000  O
  O16      1.0000 0.12940  0.10210  0.56200  Biso   1.000  O
  O17      1.0000 0.75570  0.90950  0.26260  Biso   1.000  O
  O18      1.0000 0.74430  0.09050  0.76260  Biso   1.000  O
  O19      1.0000 0.24430  0.09050  0.73740  Biso   1.000  O
  O20      1.0000 0.25570  0.90950  0.23740  Biso   1.000  O
  O21      1.0000 0.43890  0.82210  0.33510  Biso   1.000  O
  O22      1.0000 0.06110  0.17790  0.83510  Biso   1.000  O
  O23      1.0000 0.56110  0.17790  0.66490  Biso   1.000  O
  O24      1.0000 0.93890  0.82210  0.16490  Biso   1.000  O
  H1       1.0000 0.47534  0.88619  0.34979  Biso   1.000  H
  H2       1.0000 0.02466  0.11381  0.84979  Biso   1.000  H
  H3       1.0000 0.52466  0.11381  0.65021  Biso   1.000  H
  H4       1.0000 0.97534  0.88619  0.15021  Biso   1.000  H
  H5       1.0000 0.50630  0.79097  0.34965  Biso   1.000  H
  H6       1.0000 0.99370  0.20903  0.84965  Biso   1.000  H
  H7       1.0000 0.49370  0.20903  0.65035  Biso   1.000  H
  H8       1.0000 0.00630  0.79097  0.15035  Biso   1.000  H
  C1       1.0000 0.06240  0.65360  0.23830  Biso   1.000  C
  C2       1.0000 0.43760  0.34640  0.73830  Biso   1.000  C
  C3       1.0000 0.93760  0.34640  0.76170  Biso   1.000  C
  C4       1.0000 0.56240  0.65360  0.26170  Biso   1.000  C
  O25      1.0000 0.63000  0.36500  0.19970  Biso   1.000  O
  O26      1.0000 0.87000  0.63500  0.69970  Biso   1.000  O
  O27      1.0000 0.37000  0.63500  0.80030  Biso   1.000  O
  O28      1.0000 0.13000  0.36500  0.30030  Biso   1.000  O
  H9       1.0000 0.61388  0.41555  0.18854  Biso   1.000  H
  H10      1.0000 0.88612  0.58445  0.68854  Biso   1.000  H
  H11      1.0000 0.38612  0.58445  0.81146  Biso   1.000  H
  H12      1.0000 0.11388  0.41555  0.31146  Biso   1.000  H
  C5       1.0000 0.01610  0.55660  0.19350  Biso   1.000  C
  C6       1.0000 0.48390  0.44340  0.69350  Biso   1.000  C
  C7       1.0000 0.98390  0.44340  0.80650  Biso   1.000  C
  C8       1.0000 0.51610  0.55660  0.30650  Biso   1.000  C
  O29      1.0000 0.83170  0.20480  0.91080  Biso   1.000  O
  O30      1.0000 0.66830  0.79520  0.41080  Biso   1.000  O
  O31      1.0000 0.16830  0.79520  0.08920  Biso   1.000  O
  O32      1.0000 0.33170  0.20480  0.58920  Biso   1.000  O
  C9       1.0000 0.81500  0.10620  0.02800  Biso   1.000  C
  C10      1.0000 0.68500  0.89380  0.52800  Biso   1.000  C
  C11      1.0000 0.18500  0.89380  0.97200  Biso   1.000  C
  C12      1.0000 0.31500  0.10620  0.47200  Biso   1.000  C
  O33      1.0000 0.68000  0.28690  0.09960  Biso   1.000  O
  O34      1.0000 0.82000  0.71310  0.59960  Biso   1.000  O
  O35      1.0000 0.32000  0.71310  0.90040  Biso   1.000  O
  O36      1.0000 0.18000  0.28690  0.40040  Biso   1.000  O
  N1       1.0000 0.39400  0.36200  0.97230  Biso   1.000  N
  N2       1.0000 0.10600  0.63800  0.47230  Biso   1.000  N
  N3       1.0000 0.60600  0.63800  0.02770  Biso   1.000  N
  N4       1.0000 0.89400  0.36200  0.52770  Biso   1.000  N
  C13      1.0000 0.78580  0.01480  0.14610  Biso   1.000  C
  C14      1.0000 0.71420  0.98520  0.64610  Biso   1.000  C
  C15      1.0000 0.21420  0.98520  0.85390  Biso   1.000  C
  C16      1.0000 0.28580  0.01480  0.35390  Biso   1.000  C
  C17      1.0000 0.92200  0.04150  0.16360  Biso   1.000  C
  C18      1.0000 0.57800  0.95850  0.66360  Biso   1.000  C
  C19      1.0000 0.07800  0.95850  0.83640  Biso   1.000  C
  C20      1.0000 0.42200  0.04150  0.33640  Biso   1.000  C
  H13      1.0000 0.95730  0.01874  0.20898  Biso   1.000  H
  H14      1.0000 0.54270  0.98126  0.70898  Biso   1.000  H
  H15      1.0000 0.04270  0.98126  0.79102  Biso   1.000  H
  H16      1.0000 0.45730  0.01874  0.29102  Biso   1.000  H
  C21      1.0000 0.41800  0.40600  0.04180  Biso   1.000  C
  C22      1.0000 0.08200  0.59400  0.54180  Biso   1.000  C
  C23      1.0000 0.58200  0.59400  0.95820  Biso   1.000  C
  C24      1.0000 0.91800  0.40600  0.45820  Biso   1.000  C
  H17      1.0000 0.50573  0.42398  0.06082  Biso   1.000  H
  H18      1.0000 0.99427  0.57602  0.56082  Biso   1.000  H
  H19      1.0000 0.49427  0.57602  0.93918  Biso   1.000  H
  H20      1.0000 0.00573  0.42398  0.43918  Biso   1.000  H
  C25      1.0000 0.70100  0.93910  0.20160  Biso   1.000  C
  C26      1.0000 0.79900  0.06090  0.70160  Biso   1.000  C
  C27      1.0000 0.29900  0.06090  0.79840  Biso   1.000  C
  C28      1.0000 0.20100  0.93910  0.29840  Biso   1.000  C
  C29      1.0000 0.95500  0.39300  0.10100  Biso   1.000  C
  C30      1.0000 0.54500  0.60700  0.60100  Biso   1.000  C
  C31      1.0000 0.04500  0.60700  0.89900  Biso   1.000  C
  C32      1.0000 0.45500  0.39300  0.39900  Biso   1.000  C
  H21      1.0000 0.93353  0.33816  0.07014  Biso   1.000  H
  H22      1.0000 0.56647  0.66184  0.57014  Biso   1.000  H
  H23      1.0000 0.06647  0.66184  0.92986  Biso   1.000  H
  H24      1.0000 0.43353  0.33816  0.42986  Biso   1.000  H
  C33      1.0000 0.75780  0.14330  0.95310  Biso   1.000  C
  C34      1.0000 0.74220  0.85670  0.45310  Biso   1.000  C
  C35      1.0000 0.24220  0.85670  0.04690  Biso   1.000  C
  C36      1.0000 0.25780  0.14330  0.54690  Biso   1.000  C
  C37      1.0000 0.95670  0.13780  0.04180  Biso   1.000  C
  C38      1.0000 0.54330  0.86220  0.54180  Biso   1.000  C
  C39      1.0000 0.04330  0.86220  0.95820  Biso   1.000  C
  C40      1.0000 0.45670  0.13780  0.45820  Biso   1.000  C
  H25      1.0000 0.01307  0.17889  0.00642  Biso   1.000  H
  H26      1.0000 0.48693  0.82111  0.50642  Biso   1.000  H
  H27      1.0000 0.98693  0.82111  0.99358  Biso   1.000  H
  H28      1.0000 0.51307  0.17889  0.49358  Biso   1.000  H
  C41      1.0000 0.12100  0.53100  0.14770  Biso   1.000  C
  C42      1.0000 0.37900  0.46900  0.64770  Biso   1.000  C
  C43      1.0000 0.87900  0.46900  0.85230  Biso   1.000  C
  C44      1.0000 0.62100  0.53100  0.35230  Biso   1.000  C
  H29      1.0000 0.20949  0.56794  0.14796  Biso   1.000  H
  H30      1.0000 0.29051  0.43206  0.64796  Biso   1.000  H
  H31      1.0000 0.79051  0.43206  0.85204  Biso   1.000  H
  H32      1.0000 0.70949  0.56794  0.35204  Biso   1.000  H
  C45      1.0000 0.19100  0.41600  0.05590  Biso   1.000  C
  C46      1.0000 0.30900  0.58400  0.55590  Biso   1.000  C
  C47      1.0000 0.80900  0.58400  0.94410  Biso   1.000  C
  C48      1.0000 0.69100  0.41600  0.44410  Biso   1.000  C
  C49      1.0000 0.00600  0.10470  0.10970  Biso   1.000  C
  C50      1.0000 0.49400  0.89530  0.60970  Biso   1.000  C
  C51      1.0000 0.99400  0.89530  0.89030  Biso   1.000  C
  C52      1.0000 0.50600  0.10470  0.39030  Biso   1.000  C
  C53      1.0000 0.16850  0.37400  0.97890  Biso   1.000  C
  C54      1.0000 0.33150  0.62600  0.47890  Biso   1.000  C
  C55      1.0000 0.83150  0.62600  0.02110  Biso   1.000  C
  C56      1.0000 0.66850  0.37400  0.52110  Biso   1.000  C
  H33      1.0000 0.08373  0.35992  0.95486  Biso   1.000  H
  H34      1.0000 0.41627  0.64008  0.45486  Biso   1.000  H
  H35      1.0000 0.91627  0.64008  0.04514  Biso   1.000  H
  H36      1.0000 0.58373  0.35992  0.54514  Biso   1.000  H
  C57      1.0000 0.73100  0.04300  0.08280  Biso   1.000  C
  C58      1.0000 0.76900  0.95700  0.58280  Biso   1.000  C
  C59      1.0000 0.26900  0.95700  0.91720  Biso   1.000  C
  C60      1.0000 0.23100  0.04300  0.41720  Biso   1.000  C
  H37      1.0000 0.63879  0.02169  0.07370  Biso   1.000  H
  H38      1.0000 0.86121  0.97831  0.57370  Biso   1.000  H
  H39      1.0000 0.36121  0.97831  0.92630  Biso   1.000  H
  H40      1.0000 0.13879  0.02169  0.42630  Biso   1.000  H
  C61      1.0000 0.85000  0.42000  0.14800  Biso   1.000  C
  C62      1.0000 0.65000  0.58000  0.64800  Biso   1.000  C
  C63      1.0000 0.15000  0.58000  0.85200  Biso   1.000  C
  C64      1.0000 0.35000  0.42000  0.35200  Biso   1.000  C
  C65      1.0000 0.31500  0.42600  0.08820  Biso   1.000  C
  C66      1.0000 0.18500  0.57400  0.58820  Biso   1.000  C
  C67      1.0000 0.68500  0.57400  0.91180  Biso   1.000  C
  C68      1.0000 0.81500  0.42600  0.41180  Biso   1.000  C
  H41      1.0000 0.33136  0.44702  0.14113  Biso   1.000  H
  H42      1.0000 0.16864  0.55298  0.64113  Biso   1.000  H
  H43      1.0000 0.66864  0.55298  0.85887  Biso   1.000  H
  H44      1.0000 0.83136  0.44702  0.35887  Biso   1.000  H
  C69      1.0000 0.35700  0.20820  0.20170  Biso   1.000  C
  C70      1.0000 0.14300  0.79180  0.70170  Biso   1.000  C
  C71      1.0000 0.64300  0.79180  0.79830  Biso   1.000  C
  C72      1.0000 0.85700  0.20820  0.29830  Biso   1.000  C
  H45      1.0000 0.39659  0.23614  0.24907  Biso   1.000  H
  H46      1.0000 0.10341  0.76386  0.74907  Biso   1.000  H
  H47      1.0000 0.60341  0.76386  0.75093  Biso   1.000  H
  H48      1.0000 0.89659  0.23614  0.25093  Biso   1.000  H
  C73      1.0000 0.21740  0.17800  0.19570  Biso   1.000  C
  C74      1.0000 0.28260  0.82200  0.69570  Biso   1.000  C
  C75      1.0000 0.78260  0.82200  0.80430  Biso   1.000  C
  C76      1.0000 0.71740  0.17800  0.30430  Biso   1.000  C
  H49      1.0000 0.16366  0.18569  0.23909  Biso   1.000  H
  H50      1.0000 0.33634  0.81431  0.73909  Biso   1.000  H
  H51      1.0000 0.83634  0.81431  0.76091  Biso   1.000  H
  H52      1.0000 0.66366  0.18569  0.26091  Biso   1.000  H
  C77      1.0000 0.15820  0.13620  0.12490  Biso   1.000  C
  C78      1.0000 0.34180  0.86380  0.62490  Biso   1.000  C
  C79      1.0000 0.84180  0.86380  0.87510  Biso   1.000  C
  C80      1.0000 0.65820  0.13620  0.37510  Biso   1.000  C
  C81      1.0000 0.23860  0.12470  0.06010  Biso   1.000  C
  C82      1.0000 0.26140  0.87530  0.56010  Biso   1.000  C
  C83      1.0000 0.76140  0.87530  0.93990  Biso   1.000  C
  C84      1.0000 0.73860  0.12470  0.43990  Biso   1.000  C
  H53      1.0000 0.19900  0.09670  0.01277  Biso   1.000  H
  H54      1.0000 0.30100  0.90330  0.51277  Biso   1.000  H
  H55      1.0000 0.80100  0.90330  0.98723  Biso   1.000  H
  H56      1.0000 0.69900  0.09670  0.48723  Biso   1.000  H
  C85      1.0000 0.37820  0.15490  0.06610  Biso   1.000  C
  C86      1.0000 0.12180  0.84510  0.56610  Biso   1.000  C
  C87      1.0000 0.62180  0.84510  0.93390  Biso   1.000  C
  C88      1.0000 0.87820  0.15490  0.43390  Biso   1.000  C
  H57      1.0000 0.43193  0.14715  0.02274  Biso   1.000  H
  H58      1.0000 0.06807  0.85285  0.52274  Biso   1.000  H
  H59      1.0000 0.56807  0.85285  0.97726  Biso   1.000  H
  H60      1.0000 0.93193  0.14715  0.47726  Biso   1.000  H
  N5       1.0000 0.43740  0.19660  0.13690  Biso   1.000  N
  N6       1.0000 0.06260  0.80340  0.63690  Biso   1.000  N
  N7       1.0000 0.56260  0.80340  0.86310  Biso   1.000  N
  N8       1.0000 0.93740  0.19660  0.36310  Biso   1.000  N
  H61      1.0000 0.52370  0.21535  0.14059  Biso   1.000  H
  H62      1.0000 0.97630  0.78465  0.64059  Biso   1.000  H
  H63      1.0000 0.47630  0.78465  0.85941  Biso   1.000  H
  H64      1.0000 0.02370  0.21535  0.35941  Biso   1.000  H
  C89      1.0000 0.08300  0.44580  0.10190  Biso   1.000  C
  C90      1.0000 0.41700  0.55420  0.60190  Biso   1.000  C
  C91      1.0000 0.91700  0.55420  0.89810  Biso   1.000  C
  C92      1.0000 0.58300  0.44580  0.39810  Biso   1.000  C
  C93      1.0000 0.27600  0.35700  0.94230  Biso   1.000  C
  C94      1.0000 0.22400  0.64300  0.44230  Biso   1.000  C
  C95      1.0000 0.72400  0.64300  0.05770  Biso   1.000  C
  C96      1.0000 0.77600  0.35700  0.55770  Biso   1.000  C
  H65      1.0000 0.26406  0.33818  0.88852  Biso   1.000  H
  H66      1.0000 0.23594  0.66182  0.38852  Biso   1.000  H
  H67      1.0000 0.73594  0.66182  0.11148  Biso   1.000  H
  H68      1.0000 0.76406  0.33818  0.61148  Biso   1.000  H
  C97      1.0000 0.71430  0.34600  0.14600  Biso   1.000  C
  C98      1.0000 0.78570  0.65400  0.64600  Biso   1.000  C
  C99      1.0000 0.28570  0.65400  0.85400  Biso   1.000  C
  C100     1.0000 0.21430  0.34600  0.35400  Biso   1.000  C
  C101     1.0000 0.88600  0.51600  0.19210  Biso   1.000  C
  C102     1.0000 0.61400  0.48400  0.69210  Biso   1.000  C
  C103     1.0000 0.11400  0.48400  0.80790  Biso   1.000  C
  C104     1.0000 0.38600  0.51600  0.30790  Biso   1.000  C
  H69      1.0000 0.82223  0.54222  0.21578  Biso   1.000  H
  H70      1.0000 0.67777  0.45778  0.71578  Biso   1.000  H
  H71      1.0000 0.17777  0.45778  0.78422  Biso   1.000  H
  H72      1.0000 0.32223  0.54222  0.28422  Biso   1.000  H
  O37      1.0000 0.38600  0.69970  0.07110  Biso   1.000  O
  O38      1.0000 0.11400  0.30030  0.57110  Biso   1.000  O
  O39      1.0000 0.61400  0.30030  0.92890  Biso   1.000  O
  O40      1.0000 0.88600  0.69970  0.42890  Biso   1.000  O
  H73      1.0000 0.36874  0.72467  0.02347  Biso   1.000  H
  H74      1.0000 0.13126  0.27533  0.52347  Biso   1.000  H
  H75      1.0000 0.63126  0.27533  0.97653  Biso   1.000  H
  H76      1.0000 0.86874  0.72467  0.47653  Biso   1.000  H
  H77      1.0000 0.32813  0.64171  0.07467  Biso   1.000  H
  H78      1.0000 0.17187  0.35829  0.57467  Biso   1.000  H
  H79      1.0000 0.67187  0.35829  0.92533  Biso   1.000  H
  H80      1.0000 0.82813  0.64171  0.42533  Biso   1.000  H
