data_image0
_cell_length_a       7.4949
_cell_length_b       9.141
_cell_length_c       24.975
_cell_angle_alpha    90
_cell_angle_beta     90
_cell_angle_gamma    90

_symmetry_space_group_name_H-M    "P 1"
_symmetry_int_tables_number       1

loop_
  _symmetry_equiv_pos_as_xyz
  'x, y, z'

loop_
  _atom_site_label
  _atom_site_occupancy
  _atom_site_fract_x
  _atom_site_fract_y
  _atom_site_fract_z
  _atom_site_thermal_displace_type
  _atom_site_B_iso_or_equiv
  _atom_site_type_symbol
  Re1      1.0000 0.80060  0.00029  0.75000  Biso   1.000  Re
  Re2      1.0000 0.69940  0.50029  0.25000  Biso   1.000  Re
  Re3      1.0000 0.19940  0.99971  0.25000  Biso   1.000  Re
  Re4      1.0000 0.30060  0.49971  0.75000  Biso   1.000  Re
  Cu1      1.0000 0.00000  0.00000  0.50000  Biso   1.000  Cu
  Cu2      1.0000 0.50000  0.50000  0.50000  Biso   1.000  Cu
  Cu3      1.0000 0.00000  0.00000  0.00000  Biso   1.000  Cu
  Cu4      1.0000 0.50000  0.50000  0.00000  Biso   1.000  Cu
  Cu5      1.0000 0.31641  0.91592  0.75000  Biso   1.000  Cu
  Cu6      1.0000 0.18359  0.41592  0.25000  Biso   1.000  Cu
  Cu7      1.0000 0.68359  0.08408  0.25000  Biso   1.000  Cu
  Cu8      1.0000 0.81641  0.58408  0.75000  Biso   1.000  Cu
  O1       1.0000 0.73210  0.07970  0.53831  Biso   1.000  O
  O2       1.0000 0.76790  0.57970  0.46169  Biso   1.000  O
  O3       1.0000 0.26790  0.92030  0.03831  Biso   1.000  O
  O4       1.0000 0.23210  0.42030  0.96169  Biso   1.000  O
  O5       1.0000 0.26790  0.92030  0.46169  Biso   1.000  O
  O6       1.0000 0.23210  0.42030  0.53831  Biso   1.000  O
  O7       1.0000 0.73210  0.07970  0.96169  Biso   1.000  O
  O8       1.0000 0.76790  0.57970  0.03831  Biso   1.000  O
  O9       1.0000 0.00420  0.62770  0.58178  Biso   1.000  O
  O10      1.0000 0.49580  0.12770  0.41822  Biso   1.000  O
  O11      1.0000 0.99580  0.37230  0.08178  Biso   1.000  O
  O12      1.0000 0.50420  0.87230  0.91822  Biso   1.000  O
  O13      1.0000 0.99580  0.37230  0.41822  Biso   1.000  O
  O14      1.0000 0.50420  0.87230  0.58178  Biso   1.000  O
  O15      1.0000 0.00420  0.62770  0.91822  Biso   1.000  O
  O16      1.0000 0.49580  0.12770  0.08178  Biso   1.000  O
  O17      1.0000 0.57440  0.00170  0.75000  Biso   1.000  O
  O18      1.0000 0.92560  0.50170  0.25000  Biso   1.000  O
  O19      1.0000 0.42560  0.99830  0.25000  Biso   1.000  O
  O20      1.0000 0.07440  0.49830  0.75000  Biso   1.000  O
  O21      1.0000 0.88210  0.82280  0.75000  Biso   1.000  O
  O22      1.0000 0.61790  0.32280  0.25000  Biso   1.000  O
  O23      1.0000 0.11790  0.17720  0.25000  Biso   1.000  O
  O24      1.0000 0.38210  0.67720  0.75000  Biso   1.000  O
  O25      1.0000 0.83620  0.06250  0.68120  Biso   1.000  O
  O26      1.0000 0.66380  0.56250  0.31880  Biso   1.000  O
  O27      1.0000 0.16380  0.93750  0.18120  Biso   1.000  O
  O28      1.0000 0.33620  0.43750  0.81880  Biso   1.000  O
  O29      1.0000 0.16380  0.93750  0.31880  Biso   1.000  O
  O30      1.0000 0.33620  0.43750  0.68120  Biso   1.000  O
  O31      1.0000 0.83620  0.06250  0.81880  Biso   1.000  O
  O32      1.0000 0.66380  0.56250  0.18120  Biso   1.000  O
  O33      1.0000 0.94730  0.79560  0.51885  Biso   1.000  O
  O34      1.0000 0.55270  0.29560  0.48115  Biso   1.000  O
  O35      1.0000 0.05270  0.20440  0.01885  Biso   1.000  O
  O36      1.0000 0.44730  0.70440  0.98115  Biso   1.000  O
  O37      1.0000 0.05270  0.20440  0.48115  Biso   1.000  O
  O38      1.0000 0.44730  0.70440  0.51885  Biso   1.000  O
  O39      1.0000 0.94730  0.79560  0.98115  Biso   1.000  O
  O40      1.0000 0.55270  0.29560  0.01885  Biso   1.000  O
  N1       1.0000 0.11270  0.00280  0.57386  Biso   1.000  N
  N2       1.0000 0.38730  0.50280  0.42614  Biso   1.000  N
  N3       1.0000 0.88730  0.99720  0.07386  Biso   1.000  N
  N4       1.0000 0.61270  0.49720  0.92614  Biso   1.000  N
  N5       1.0000 0.88730  0.99720  0.42614  Biso   1.000  N
  N6       1.0000 0.61270  0.49720  0.57386  Biso   1.000  N
  N7       1.0000 0.11270  0.00280  0.92614  Biso   1.000  N
  N8       1.0000 0.38730  0.50280  0.07386  Biso   1.000  N
  N9       1.0000 0.23990  0.94990  0.67675  Biso   1.000  N
  N10      1.0000 0.26010  0.44990  0.32325  Biso   1.000  N
  N11      1.0000 0.76010  0.05010  0.17675  Biso   1.000  N
  N12      1.0000 0.73990  0.55010  0.82325  Biso   1.000  N
  N13      1.0000 0.76010  0.05010  0.32325  Biso   1.000  N
  N14      1.0000 0.73990  0.55010  0.67675  Biso   1.000  N
  N15      1.0000 0.23990  0.94990  0.82325  Biso   1.000  N
  N16      1.0000 0.26010  0.44990  0.17675  Biso   1.000  N
  C1       1.0000 0.00870  0.75350  0.56410  Biso   1.000  C
  C2       1.0000 0.49130  0.25350  0.43590  Biso   1.000  C
  C3       1.0000 0.99130  0.24650  0.06410  Biso   1.000  C
  C4       1.0000 0.50870  0.74650  0.93590  Biso   1.000  C
  C5       1.0000 0.99130  0.24650  0.43590  Biso   1.000  C
  C6       1.0000 0.50870  0.74650  0.56410  Biso   1.000  C
  C7       1.0000 0.00870  0.75350  0.93590  Biso   1.000  C
  C8       1.0000 0.49130  0.25350  0.06410  Biso   1.000  C
  C9       1.0000 0.09520  0.87100  0.59755  Biso   1.000  C
  C10      1.0000 0.40480  0.37100  0.40245  Biso   1.000  C
  C11      1.0000 0.90480  0.12900  0.09755  Biso   1.000  C
  C12      1.0000 0.59520  0.62900  0.90245  Biso   1.000  C
  C13      1.0000 0.90480  0.12900  0.40245  Biso   1.000  C
  C14      1.0000 0.59520  0.62900  0.59755  Biso   1.000  C
  C15      1.0000 0.09520  0.87100  0.90245  Biso   1.000  C
  C16      1.0000 0.40480  0.37100  0.09755  Biso   1.000  C
  C17      1.0000 0.15640  0.84510  0.64859  Biso   1.000  C
  C18      1.0000 0.34360  0.34510  0.35141  Biso   1.000  C
  C19      1.0000 0.84360  0.15490  0.14859  Biso   1.000  C
  C20      1.0000 0.65640  0.65490  0.85141  Biso   1.000  C
  C21      1.0000 0.84360  0.15490  0.35141  Biso   1.000  C
  C22      1.0000 0.65640  0.65490  0.64859  Biso   1.000  C
  C23      1.0000 0.15640  0.84510  0.85141  Biso   1.000  C
  C24      1.0000 0.34360  0.34510  0.14859  Biso   1.000  C
  H1       1.0000 0.13930  0.75140  0.66420  Biso   1.000  H
  H2       1.0000 0.36070  0.25140  0.33580  Biso   1.000  H
  H3       1.0000 0.86070  0.24860  0.16420  Biso   1.000  H
  H4       1.0000 0.63930  0.74860  0.83580  Biso   1.000  H
  H5       1.0000 0.86070  0.24860  0.33580  Biso   1.000  H
  H6       1.0000 0.63930  0.74860  0.66420  Biso   1.000  H
  H7       1.0000 0.13930  0.75140  0.83580  Biso   1.000  H
  H8       1.0000 0.36070  0.25140  0.16420  Biso   1.000  H
  C25      1.0000 0.26170  0.08010  0.65251  Biso   1.000  C
  C26      1.0000 0.23830  0.58010  0.34749  Biso   1.000  C
  C27      1.0000 0.73830  0.91990  0.15251  Biso   1.000  C
  C28      1.0000 0.76170  0.41990  0.84749  Biso   1.000  C
  C29      1.0000 0.73830  0.91990  0.34749  Biso   1.000  C
  C30      1.0000 0.76170  0.41990  0.65251  Biso   1.000  C
  C31      1.0000 0.26170  0.08010  0.84749  Biso   1.000  C
  C32      1.0000 0.23830  0.58010  0.15251  Biso   1.000  C
  H9       1.0000 0.32220  0.15610  0.67100  Biso   1.000  H
  H10      1.0000 0.17780  0.65610  0.32900  Biso   1.000  H
  H11      1.0000 0.67780  0.84390  0.17100  Biso   1.000  H
  H12      1.0000 0.82220  0.34390  0.82900  Biso   1.000  H
  H13      1.0000 0.67780  0.84390  0.32900  Biso   1.000  H
  H14      1.0000 0.82220  0.34390  0.67100  Biso   1.000  H
  H15      1.0000 0.32220  0.15610  0.82900  Biso   1.000  H
  H16      1.0000 0.17780  0.65610  0.17100  Biso   1.000  H
  C33      1.0000 0.19830  0.10650  0.60131  Biso   1.000  C
  C34      1.0000 0.30170  0.60650  0.39869  Biso   1.000  C
  C35      1.0000 0.80170  0.89350  0.10131  Biso   1.000  C
  C36      1.0000 0.69830  0.39350  0.89869  Biso   1.000  C
  C37      1.0000 0.80170  0.89350  0.39869  Biso   1.000  C
  C38      1.0000 0.69830  0.39350  0.60131  Biso   1.000  C
  C39      1.0000 0.19830  0.10650  0.89869  Biso   1.000  C
  C40      1.0000 0.30170  0.60650  0.10131  Biso   1.000  C
  H17      1.0000 0.21610  0.19990  0.58550  Biso   1.000  H
  H18      1.0000 0.28390  0.69990  0.41450  Biso   1.000  H
  H19      1.0000 0.78390  0.80010  0.08550  Biso   1.000  H
  H20      1.0000 0.71610  0.30010  0.91450  Biso   1.000  H
  H21      1.0000 0.78390  0.80010  0.41450  Biso   1.000  H
  H22      1.0000 0.71610  0.30010  0.58550  Biso   1.000  H
  H23      1.0000 0.21610  0.19990  0.91450  Biso   1.000  H
  H24      1.0000 0.28390  0.69990  0.08550  Biso   1.000  H
  H25      1.0000 0.68300  0.13400  0.51920  Biso   1.000  H
  H26      1.0000 0.81700  0.63400  0.48080  Biso   1.000  H
  H27      1.0000 0.31700  0.86600  0.01920  Biso   1.000  H
  H28      1.0000 0.18300  0.36600  0.98080  Biso   1.000  H
  H29      1.0000 0.31700  0.86600  0.48080  Biso   1.000  H
  H30      1.0000 0.18300  0.36600  0.51920  Biso   1.000  H
  H31      1.0000 0.68300  0.13400  0.98080  Biso   1.000  H
  H32      1.0000 0.81700  0.63400  0.01920  Biso   1.000  H
  H33      1.0000 0.66500  0.02100  0.55000  Biso   1.000  H
  H34      1.0000 0.83500  0.52100  0.45000  Biso   1.000  H
  H35      1.0000 0.33500  0.97900  0.05000  Biso   1.000  H
  H36      1.0000 0.16500  0.47900  0.95000  Biso   1.000  H
  H37      1.0000 0.33500  0.97900  0.45000  Biso   1.000  H
  H38      1.0000 0.16500  0.47900  0.55000  Biso   1.000  H
  H39      1.0000 0.66500  0.02100  0.95000  Biso   1.000  H
  H40      1.0000 0.83500  0.52100  0.05000  Biso   1.000  H
  O41      1.0000 0.90890  0.11550  0.71200  Biso   1.000  O
  O42      1.0000 0.59110  0.61550  0.28800  Biso   1.000  O
  O43      1.0000 0.09110  0.88450  0.21200  Biso   1.000  O
  O44      1.0000 0.40890  0.38450  0.78800  Biso   1.000  O
  O45      1.0000 0.09110  0.88450  0.28800  Biso   1.000  O
  O46      1.0000 0.40890  0.38450  0.71200  Biso   1.000  O
  O47      1.0000 0.90890  0.11550  0.78800  Biso   1.000  O
  O48      1.0000 0.59110  0.61550  0.21200  Biso   1.000  O
