data_image0
_cell_length_a       12.4392
_cell_length_b       12.9051
_cell_length_c       27.329
_cell_angle_alpha    102.399
_cell_angle_beta     90
_cell_angle_gamma    90

_symmetry_space_group_name_H-M    "P 1"
_symmetry_int_tables_number       1

loop_
  _symmetry_equiv_pos_as_xyz
  'x, y, z'

loop_
  _atom_site_label
  _atom_site_occupancy
  _atom_site_fract_x
  _atom_site_fract_y
  _atom_site_fract_z
  _atom_site_thermal_displace_type
  _atom_site_B_iso_or_equiv
  _atom_site_type_symbol
  B1       1.0000 0.11580  0.21780  0.32013  Biso   1.000  B
  B2       1.0000 0.61580  0.21780  0.82013  Biso   1.000  B
  B3       1.0000 0.11580  0.28220  0.67987  Biso   1.000  B
  B4       1.0000 0.61580  0.28220  0.17987  Biso   1.000  B
  B5       1.0000 0.88420  0.78220  0.67987  Biso   1.000  B
  B6       1.0000 0.38420  0.78220  0.17987  Biso   1.000  B
  B7       1.0000 0.88420  0.71780  0.32013  Biso   1.000  B
  B8       1.0000 0.38420  0.71780  0.82013  Biso   1.000  B
  H1       1.0000 0.04660  0.22460  0.30400  Biso   1.000  H
  H2       1.0000 0.54660  0.22460  0.80400  Biso   1.000  H
  H3       1.0000 0.04660  0.27540  0.69600  Biso   1.000  H
  H4       1.0000 0.54660  0.27540  0.19600  Biso   1.000  H
  H5       1.0000 0.95340  0.77540  0.69600  Biso   1.000  H
  H6       1.0000 0.45340  0.77540  0.19600  Biso   1.000  H
  H7       1.0000 0.95340  0.72460  0.30400  Biso   1.000  H
  H8       1.0000 0.45340  0.72460  0.80400  Biso   1.000  H
  C1       1.0000 0.10250  0.01000  0.29124  Biso   1.000  C
  C2       1.0000 0.60250  0.01000  0.79124  Biso   1.000  C
  C3       1.0000 0.10250  0.49000  0.70876  Biso   1.000  C
  C4       1.0000 0.60250  0.49000  0.20876  Biso   1.000  C
  C5       1.0000 0.89750  0.99000  0.70876  Biso   1.000  C
  C6       1.0000 0.39750  0.99000  0.20876  Biso   1.000  C
  C7       1.0000 0.89750  0.51000  0.29124  Biso   1.000  C
  C8       1.0000 0.39750  0.51000  0.79124  Biso   1.000  C
  H9       1.0000 0.03770  0.00350  0.27380  Biso   1.000  H
  H10      1.0000 0.53770  0.00350  0.77380  Biso   1.000  H
  H11      1.0000 0.03770  0.49650  0.72620  Biso   1.000  H
  H12      1.0000 0.53770  0.49650  0.22620  Biso   1.000  H
  H13      1.0000 0.96230  0.99650  0.72620  Biso   1.000  H
  H14      1.0000 0.46230  0.99650  0.22620  Biso   1.000  H
  H15      1.0000 0.96230  0.50350  0.27380  Biso   1.000  H
  H16      1.0000 0.46230  0.50350  0.77380  Biso   1.000  H
  C9       1.0000 0.16690  0.92810  0.29724  Biso   1.000  C
  C10      1.0000 0.66690  0.92810  0.79724  Biso   1.000  C
  C11      1.0000 0.16690  0.57190  0.70276  Biso   1.000  C
  C12      1.0000 0.66690  0.57190  0.20276  Biso   1.000  C
  C13      1.0000 0.83310  0.07190  0.70276  Biso   1.000  C
  C14      1.0000 0.33310  0.07190  0.20276  Biso   1.000  C
  C15      1.0000 0.83310  0.42810  0.29724  Biso   1.000  C
  C16      1.0000 0.33310  0.42810  0.79724  Biso   1.000  C
  H17      1.0000 0.15500  0.85600  0.28510  Biso   1.000  H
  H18      1.0000 0.65500  0.85600  0.78510  Biso   1.000  H
  H19      1.0000 0.15500  0.64400  0.71490  Biso   1.000  H
  H20      1.0000 0.65500  0.64400  0.21490  Biso   1.000  H
  H21      1.0000 0.84500  0.14400  0.71490  Biso   1.000  H
  H22      1.0000 0.34500  0.14400  0.21490  Biso   1.000  H
  H23      1.0000 0.84500  0.35600  0.28510  Biso   1.000  H
  H24      1.0000 0.34500  0.35600  0.78510  Biso   1.000  H
  C17      1.0000 0.25300  0.97420  0.32492  Biso   1.000  C
  C18      1.0000 0.75300  0.97420  0.82492  Biso   1.000  C
  C19      1.0000 0.25300  0.52580  0.67508  Biso   1.000  C
  C20      1.0000 0.75300  0.52580  0.17508  Biso   1.000  C
  C21      1.0000 0.74700  0.02580  0.67508  Biso   1.000  C
  C22      1.0000 0.24700  0.02580  0.17508  Biso   1.000  C
  C23      1.0000 0.74700  0.47420  0.32492  Biso   1.000  C
  C24      1.0000 0.24700  0.47420  0.82492  Biso   1.000  C
  H25      1.0000 0.31040  0.93740  0.33490  Biso   1.000  H
  H26      1.0000 0.81040  0.93740  0.83490  Biso   1.000  H
  H27      1.0000 0.31040  0.56260  0.66510  Biso   1.000  H
  H28      1.0000 0.81040  0.56260  0.16510  Biso   1.000  H
  H29      1.0000 0.68960  0.06260  0.66510  Biso   1.000  H
  H30      1.0000 0.18960  0.06260  0.16510  Biso   1.000  H
  H31      1.0000 0.68960  0.43740  0.33490  Biso   1.000  H
  H32      1.0000 0.18960  0.43740  0.83490  Biso   1.000  H
  C25      1.0000 0.03690  0.32460  0.40556  Biso   1.000  C
  C26      1.0000 0.53690  0.32460  0.90556  Biso   1.000  C
  C27      1.0000 0.03690  0.17540  0.59444  Biso   1.000  C
  C28      1.0000 0.53690  0.17540  0.09444  Biso   1.000  C
  C29      1.0000 0.96310  0.67540  0.59444  Biso   1.000  C
  C30      1.0000 0.46310  0.67540  0.09444  Biso   1.000  C
  C31      1.0000 0.96310  0.82460  0.40556  Biso   1.000  C
  C32      1.0000 0.46310  0.82460  0.90556  Biso   1.000  C
  H33      1.0000 0.96830  0.33840  0.39510  Biso   1.000  H
  H34      1.0000 0.46830  0.33840  0.89510  Biso   1.000  H
  H35      1.0000 0.96830  0.16160  0.60490  Biso   1.000  H
  H36      1.0000 0.46830  0.16160  0.10490  Biso   1.000  H
  H37      1.0000 0.03170  0.66160  0.60490  Biso   1.000  H
  H38      1.0000 0.53170  0.66160  0.10490  Biso   1.000  H
  H39      1.0000 0.03170  0.83840  0.39510  Biso   1.000  H
  H40      1.0000 0.53170  0.83840  0.89510  Biso   1.000  H
  C33      1.0000 0.07710  0.35950  0.45270  Biso   1.000  C
  C34      1.0000 0.57710  0.35950  0.95270  Biso   1.000  C
  C35      1.0000 0.07710  0.14050  0.54730  Biso   1.000  C
  C36      1.0000 0.57710  0.14050  0.04730  Biso   1.000  C
  C37      1.0000 0.92290  0.64050  0.54730  Biso   1.000  C
  C38      1.0000 0.42290  0.64050  0.04730  Biso   1.000  C
  C39      1.0000 0.92290  0.85950  0.45270  Biso   1.000  C
  C40      1.0000 0.42290  0.85950  0.95270  Biso   1.000  C
  H41      1.0000 0.04230  0.40110  0.48010  Biso   1.000  H
  H42      1.0000 0.54230  0.40110  0.98010  Biso   1.000  H
  H43      1.0000 0.04230  0.09890  0.51990  Biso   1.000  H
  H44      1.0000 0.54230  0.09890  0.01990  Biso   1.000  H
  H45      1.0000 0.95770  0.59890  0.51990  Biso   1.000  H
  H46      1.0000 0.45770  0.59890  0.01990  Biso   1.000  H
  H47      1.0000 0.95770  0.90110  0.48010  Biso   1.000  H
  H48      1.0000 0.45770  0.90110  0.98010  Biso   1.000  H
  C41      1.0000 0.18080  0.31980  0.45096  Biso   1.000  C
  C42      1.0000 0.68080  0.31980  0.95096  Biso   1.000  C
  C43      1.0000 0.18080  0.18020  0.54904  Biso   1.000  C
  C44      1.0000 0.68080  0.18020  0.04904  Biso   1.000  C
  C45      1.0000 0.81920  0.68020  0.54904  Biso   1.000  C
  C46      1.0000 0.31920  0.68020  0.04904  Biso   1.000  C
  C47      1.0000 0.81920  0.81980  0.45096  Biso   1.000  C
  C48      1.0000 0.31920  0.81980  0.95096  Biso   1.000  C
  H49      1.0000 0.22830  0.32990  0.47780  Biso   1.000  H
  H50      1.0000 0.72830  0.32990  0.97780  Biso   1.000  H
  H51      1.0000 0.22830  0.17010  0.52220  Biso   1.000  H
  H52      1.0000 0.72830  0.17010  0.02220  Biso   1.000  H
  H53      1.0000 0.77170  0.67010  0.52220  Biso   1.000  H
  H54      1.0000 0.27170  0.67010  0.02220  Biso   1.000  H
  H55      1.0000 0.77170  0.82990  0.47780  Biso   1.000  H
  H56      1.0000 0.27170  0.82990  0.97780  Biso   1.000  H
  C49      1.0000 0.20690  0.33480  0.26358  Biso   1.000  C
  C50      1.0000 0.70690  0.33480  0.76358  Biso   1.000  C
  C51      1.0000 0.20690  0.16520  0.73642  Biso   1.000  C
  C52      1.0000 0.70690  0.16520  0.23642  Biso   1.000  C
  C53      1.0000 0.79310  0.66520  0.73642  Biso   1.000  C
  C54      1.0000 0.29310  0.66520  0.23642  Biso   1.000  C
  C55      1.0000 0.79310  0.83480  0.26358  Biso   1.000  C
  C56      1.0000 0.29310  0.83480  0.76358  Biso   1.000  C
  H57      1.0000 0.14840  0.34730  0.24450  Biso   1.000  H
  H58      1.0000 0.64840  0.34730  0.74450  Biso   1.000  H
  H59      1.0000 0.14840  0.15270  0.75550  Biso   1.000  H
  H60      1.0000 0.64840  0.15270  0.25550  Biso   1.000  H
  H61      1.0000 0.85160  0.65270  0.75550  Biso   1.000  H
  H62      1.0000 0.35160  0.65270  0.25550  Biso   1.000  H
  H63      1.0000 0.85160  0.84730  0.24450  Biso   1.000  H
  H64      1.0000 0.35160  0.84730  0.74450  Biso   1.000  H
  C57      1.0000 0.30770  0.37480  0.26128  Biso   1.000  C
  C58      1.0000 0.80770  0.37480  0.76128  Biso   1.000  C
  C59      1.0000 0.30770  0.12520  0.73872  Biso   1.000  C
  C60      1.0000 0.80770  0.12520  0.23872  Biso   1.000  C
  C61      1.0000 0.69230  0.62520  0.73872  Biso   1.000  C
  C62      1.0000 0.19230  0.62520  0.23872  Biso   1.000  C
  C63      1.0000 0.69230  0.87480  0.26128  Biso   1.000  C
  C64      1.0000 0.19230  0.87480  0.76128  Biso   1.000  C
  H65      1.0000 0.33130  0.41920  0.24080  Biso   1.000  H
  H66      1.0000 0.83130  0.41920  0.74080  Biso   1.000  H
  H67      1.0000 0.33130  0.08080  0.75920  Biso   1.000  H
  H68      1.0000 0.83130  0.08080  0.25920  Biso   1.000  H
  H69      1.0000 0.66870  0.58080  0.75920  Biso   1.000  H
  H70      1.0000 0.16870  0.58080  0.25920  Biso   1.000  H
  H71      1.0000 0.66870  0.91920  0.24080  Biso   1.000  H
  H72      1.0000 0.16870  0.91920  0.74080  Biso   1.000  H
  C65      1.0000 0.36710  0.33540  0.29563  Biso   1.000  C
  C66      1.0000 0.86710  0.33540  0.79563  Biso   1.000  C
  C67      1.0000 0.36710  0.16460  0.70437  Biso   1.000  C
  C68      1.0000 0.86710  0.16460  0.20437  Biso   1.000  C
  C69      1.0000 0.63290  0.66460  0.70437  Biso   1.000  C
  C70      1.0000 0.13290  0.66460  0.20437  Biso   1.000  C
  C71      1.0000 0.63290  0.83540  0.29563  Biso   1.000  C
  C72      1.0000 0.13290  0.83540  0.79563  Biso   1.000  C
  H73      1.0000 0.43960  0.34920  0.30230  Biso   1.000  H
  H74      1.0000 0.93960  0.34920  0.80230  Biso   1.000  H
  H75      1.0000 0.43960  0.15080  0.69770  Biso   1.000  H
  H76      1.0000 0.93960  0.15080  0.19770  Biso   1.000  H
  H77      1.0000 0.56040  0.65080  0.69770  Biso   1.000  H
  H78      1.0000 0.06040  0.65080  0.19770  Biso   1.000  H
  H79      1.0000 0.56040  0.84920  0.30230  Biso   1.000  H
  H80      1.0000 0.06040  0.84920  0.80230  Biso   1.000  H
  C73      1.0000 0.36630  0.12210  0.42339  Biso   1.000  C
  C74      1.0000 0.86630  0.12210  0.92339  Biso   1.000  C
  C75      1.0000 0.36630  0.37790  0.57661  Biso   1.000  C
  C76      1.0000 0.86630  0.37790  0.07661  Biso   1.000  C
  C77      1.0000 0.63370  0.87790  0.57661  Biso   1.000  C
  C78      1.0000 0.13370  0.87790  0.07661  Biso   1.000  C
  C79      1.0000 0.63370  0.62210  0.42339  Biso   1.000  C
  C80      1.0000 0.13370  0.62210  0.92339  Biso   1.000  C
  C81      1.0000 0.45980  0.13280  0.33750  Biso   1.000  C
  C82      1.0000 0.95980  0.13280  0.83750  Biso   1.000  C
  C83      1.0000 0.45980  0.36720  0.66250  Biso   1.000  C
  C84      1.0000 0.95980  0.36720  0.16250  Biso   1.000  C
  C85      1.0000 0.54020  0.86720  0.66250  Biso   1.000  C
  C86      1.0000 0.04020  0.86720  0.16250  Biso   1.000  C
  C87      1.0000 0.54020  0.63280  0.33750  Biso   1.000  C
  C88      1.0000 0.04020  0.63280  0.83750  Biso   1.000  C
  C89      1.0000 0.57890  0.80640  0.40893  Biso   1.000  C
  C90      1.0000 0.07890  0.80640  0.90893  Biso   1.000  C
  C91      1.0000 0.57890  0.69360  0.59107  Biso   1.000  C
  C92      1.0000 0.07890  0.69360  0.09107  Biso   1.000  C
  C93      1.0000 0.42110  0.19360  0.59107  Biso   1.000  C
  C94      1.0000 0.92110  0.19360  0.09107  Biso   1.000  C
  C95      1.0000 0.42110  0.30640  0.40893  Biso   1.000  C
  C96      1.0000 0.92110  0.30640  0.90893  Biso   1.000  C
  Fe1      1.0000 0.33299  0.19619  0.37157  Biso   1.000  Fe
  Fe2      1.0000 0.83299  0.19619  0.87157  Biso   1.000  Fe
  Fe3      1.0000 0.33299  0.30381  0.62843  Biso   1.000  Fe
  Fe4      1.0000 0.83299  0.30381  0.12843  Biso   1.000  Fe
  Fe5      1.0000 0.66701  0.80381  0.62843  Biso   1.000  Fe
  Fe6      1.0000 0.16701  0.80381  0.12843  Biso   1.000  Fe
  Fe7      1.0000 0.66701  0.69619  0.37157  Biso   1.000  Fe
  Fe8      1.0000 0.16701  0.69619  0.87157  Biso   1.000  Fe
  Mn1      1.0000 0.50000  0.00000  0.50000  Biso   1.000  Mn
  Mn2      1.0000 0.00000  0.00000  0.00000  Biso   1.000  Mn
  Mn3      1.0000 0.50000  0.50000  0.50000  Biso   1.000  Mn
  Mn4      1.0000 0.00000  0.50000  0.00000  Biso   1.000  Mn
  N1       1.0000 0.14812  0.10140  0.31469  Biso   1.000  N
  N2       1.0000 0.64812  0.10140  0.81469  Biso   1.000  N
  N3       1.0000 0.14812  0.39860  0.68531  Biso   1.000  N
  N4       1.0000 0.64812  0.39860  0.18531  Biso   1.000  N
  N5       1.0000 0.85188  0.89860  0.68531  Biso   1.000  N
  N6       1.0000 0.35188  0.89860  0.18531  Biso   1.000  N
  N7       1.0000 0.85188  0.60140  0.31469  Biso   1.000  N
  N8       1.0000 0.35188  0.60140  0.81469  Biso   1.000  N
  N9       1.0000 0.24271  0.07940  0.33544  Biso   1.000  N
  N10      1.0000 0.74271  0.07940  0.83544  Biso   1.000  N
  N11      1.0000 0.24271  0.42060  0.66456  Biso   1.000  N
  N12      1.0000 0.74271  0.42060  0.16456  Biso   1.000  N
  N13      1.0000 0.75729  0.92060  0.66456  Biso   1.000  N
  N14      1.0000 0.25729  0.92060  0.16456  Biso   1.000  N
  N15      1.0000 0.75729  0.57940  0.33544  Biso   1.000  N
  N16      1.0000 0.25729  0.57940  0.83544  Biso   1.000  N
  N17      1.0000 0.11216  0.26740  0.37693  Biso   1.000  N
  N18      1.0000 0.61216  0.26740  0.87693  Biso   1.000  N
  N19      1.0000 0.11216  0.23260  0.62307  Biso   1.000  N
  N20      1.0000 0.61216  0.23260  0.12307  Biso   1.000  N
  N21      1.0000 0.88784  0.73260  0.62307  Biso   1.000  N
  N22      1.0000 0.38784  0.73260  0.12307  Biso   1.000  N
  N23      1.0000 0.88784  0.76740  0.37693  Biso   1.000  N
  N24      1.0000 0.38784  0.76740  0.87693  Biso   1.000  N
  N25      1.0000 0.20200  0.26471  0.40476  Biso   1.000  N
  N26      1.0000 0.70200  0.26471  0.90476  Biso   1.000  N
  N27      1.0000 0.20200  0.23529  0.59524  Biso   1.000  N
  N28      1.0000 0.70200  0.23529  0.09524  Biso   1.000  N
  N29      1.0000 0.79800  0.73529  0.59524  Biso   1.000  N
  N30      1.0000 0.29800  0.73529  0.09524  Biso   1.000  N
  N31      1.0000 0.79800  0.76471  0.40476  Biso   1.000  N
  N32      1.0000 0.29800  0.76471  0.90476  Biso   1.000  N
  N33      1.0000 0.20570  0.27421  0.29804  Biso   1.000  N
  N34      1.0000 0.70570  0.27421  0.79804  Biso   1.000  N
  N35      1.0000 0.20570  0.22579  0.70196  Biso   1.000  N
  N36      1.0000 0.70570  0.22579  0.20196  Biso   1.000  N
  N37      1.0000 0.79430  0.72579  0.70196  Biso   1.000  N
  N38      1.0000 0.29430  0.72579  0.20196  Biso   1.000  N
  N39      1.0000 0.79430  0.77421  0.29804  Biso   1.000  N
  N40      1.0000 0.29430  0.77421  0.79804  Biso   1.000  N
  N41      1.0000 0.30627  0.27477  0.31800  Biso   1.000  N
  N42      1.0000 0.80627  0.27477  0.81800  Biso   1.000  N
  N43      1.0000 0.30627  0.22523  0.68200  Biso   1.000  N
  N44      1.0000 0.80627  0.22523  0.18200  Biso   1.000  N
  N45      1.0000 0.69373  0.72523  0.68200  Biso   1.000  N
  N46      1.0000 0.19373  0.72523  0.18200  Biso   1.000  N
  N47      1.0000 0.69373  0.77477  0.31800  Biso   1.000  N
  N48      1.0000 0.19373  0.77477  0.81800  Biso   1.000  N
  N49      1.0000 0.39205  0.07856  0.45371  Biso   1.000  N
  N50      1.0000 0.89205  0.07856  0.95371  Biso   1.000  N
  N51      1.0000 0.39205  0.42144  0.54629  Biso   1.000  N
  N52      1.0000 0.89205  0.42144  0.04629  Biso   1.000  N
  N53      1.0000 0.60795  0.92144  0.54629  Biso   1.000  N
  N54      1.0000 0.10795  0.92144  0.04629  Biso   1.000  N
  N55      1.0000 0.60795  0.57856  0.45371  Biso   1.000  N
  N56      1.0000 0.10795  0.57856  0.95371  Biso   1.000  N
  N57      1.0000 0.53330  0.09470  0.31612  Biso   1.000  N
  N58      1.0000 0.03330  0.09470  0.81612  Biso   1.000  N
  N59      1.0000 0.53330  0.40530  0.68388  Biso   1.000  N
  N60      1.0000 0.03330  0.40530  0.18388  Biso   1.000  N
  N61      1.0000 0.46670  0.90530  0.68388  Biso   1.000  N
  N62      1.0000 0.96670  0.90530  0.18388  Biso   1.000  N
  N63      1.0000 0.46670  0.59470  0.31612  Biso   1.000  N
  N64      1.0000 0.96670  0.59470  0.81612  Biso   1.000  N
  N65      1.0000 0.53010  0.87174  0.43438  Biso   1.000  N
  N66      1.0000 0.03010  0.87174  0.93438  Biso   1.000  N
  N67      1.0000 0.53010  0.62826  0.56562  Biso   1.000  N
  N68      1.0000 0.03010  0.62826  0.06562  Biso   1.000  N
  N69      1.0000 0.46990  0.12826  0.56562  Biso   1.000  N
  N70      1.0000 0.96990  0.12826  0.06562  Biso   1.000  N
  N71      1.0000 0.46990  0.37174  0.43438  Biso   1.000  N
  N72      1.0000 0.96990  0.37174  0.93438  Biso   1.000  N
  C97      1.0000 0.64600  0.15060  0.45240  Biso   1.000  C
  C98      1.0000 0.14600  0.15060  0.95240  Biso   1.000  C
  C99      1.0000 0.64600  0.34940  0.54760  Biso   1.000  C
  C100     1.0000 0.14600  0.34940  0.04760  Biso   1.000  C
  C101     1.0000 0.35400  0.84940  0.54760  Biso   1.000  C
  C102     1.0000 0.85400  0.84940  0.04760  Biso   1.000  C
  C103     1.0000 0.35400  0.65060  0.45240  Biso   1.000  C
  C104     1.0000 0.85400  0.65060  0.95240  Biso   1.000  C
  H81      1.0000 0.59240  0.20200  0.45830  Biso   1.000  H
  H82      1.0000 0.09240  0.20200  0.95830  Biso   1.000  H
  H83      1.0000 0.59240  0.29800  0.54170  Biso   1.000  H
  H84      1.0000 0.09240  0.29800  0.04170  Biso   1.000  H
  H85      1.0000 0.40760  0.79800  0.54170  Biso   1.000  H
  H86      1.0000 0.90760  0.79800  0.04170  Biso   1.000  H
  H87      1.0000 0.40760  0.70200  0.45830  Biso   1.000  H
  H88      1.0000 0.90760  0.70200  0.95830  Biso   1.000  H
  C105     1.0000 0.78750  0.07420  0.39990  Biso   1.000  C
  C106     1.0000 0.28750  0.07420  0.89990  Biso   1.000  C
  C107     1.0000 0.78750  0.42580  0.60010  Biso   1.000  C
  C108     1.0000 0.28750  0.42580  0.10010  Biso   1.000  C
  C109     1.0000 0.21250  0.92580  0.60010  Biso   1.000  C
  C110     1.0000 0.71250  0.92580  0.10010  Biso   1.000  C
  C111     1.0000 0.21250  0.57420  0.39990  Biso   1.000  C
  C112     1.0000 0.71250  0.57420  0.89990  Biso   1.000  C
  H89      1.0000 0.77890  0.02030  0.41900  Biso   1.000  H
  H90      1.0000 0.27890  0.02030  0.91900  Biso   1.000  H
  H91      1.0000 0.77890  0.47970  0.58100  Biso   1.000  H
  H92      1.0000 0.27890  0.47970  0.08100  Biso   1.000  H
  H93      1.0000 0.22110  0.97970  0.58100  Biso   1.000  H
  H94      1.0000 0.72110  0.97970  0.08100  Biso   1.000  H
  H95      1.0000 0.22110  0.52030  0.41900  Biso   1.000  H
  H96      1.0000 0.72110  0.52030  0.91900  Biso   1.000  H
  H97      1.0000 0.86080  0.09800  0.40200  Biso   1.000  H
  H98      1.0000 0.36080  0.09800  0.90200  Biso   1.000  H
  H99      1.0000 0.86080  0.40200  0.59800  Biso   1.000  H
  H100     1.0000 0.36080  0.40200  0.09800  Biso   1.000  H
  H101     1.0000 0.13920  0.90200  0.59800  Biso   1.000  H
  H102     1.0000 0.63920  0.90200  0.09800  Biso   1.000  H
  H103     1.0000 0.13920  0.59800  0.40200  Biso   1.000  H
  H104     1.0000 0.63920  0.59800  0.90200  Biso   1.000  H
  H105     1.0000 0.76930  0.04550  0.36560  Biso   1.000  H
  H106     1.0000 0.26930  0.04550  0.86560  Biso   1.000  H
  H107     1.0000 0.76930  0.45450  0.63440  Biso   1.000  H
  H108     1.0000 0.26930  0.45450  0.13440  Biso   1.000  H
  H109     1.0000 0.23070  0.95450  0.63440  Biso   1.000  H
  H110     1.0000 0.73070  0.95450  0.13440  Biso   1.000  H
  H111     1.0000 0.23070  0.54550  0.36560  Biso   1.000  H
  H112     1.0000 0.73070  0.54550  0.86560  Biso   1.000  H
  C113     1.0000 0.71990  0.25300  0.39630  Biso   1.000  C
  C114     1.0000 0.21990  0.25300  0.89630  Biso   1.000  C
  C115     1.0000 0.71990  0.24700  0.60370  Biso   1.000  C
  C116     1.0000 0.21990  0.24700  0.10370  Biso   1.000  C
  C117     1.0000 0.28010  0.74700  0.60370  Biso   1.000  C
  C118     1.0000 0.78010  0.74700  0.10370  Biso   1.000  C
  C119     1.0000 0.28010  0.75300  0.39630  Biso   1.000  C
  C120     1.0000 0.78010  0.75300  0.89630  Biso   1.000  C
  H113     1.0000 0.67170  0.30680  0.41360  Biso   1.000  H
  H114     1.0000 0.17170  0.30680  0.91360  Biso   1.000  H
  H115     1.0000 0.67170  0.19320  0.58640  Biso   1.000  H
  H116     1.0000 0.17170  0.19320  0.08640  Biso   1.000  H
  H117     1.0000 0.32830  0.69320  0.58640  Biso   1.000  H
  H118     1.0000 0.82830  0.69320  0.08640  Biso   1.000  H
  H119     1.0000 0.32830  0.80680  0.41360  Biso   1.000  H
  H120     1.0000 0.82830  0.80680  0.91360  Biso   1.000  H
  H121     1.0000 0.69800  0.23120  0.36190  Biso   1.000  H
  H122     1.0000 0.19800  0.23120  0.86190  Biso   1.000  H
  H123     1.0000 0.69800  0.26880  0.63810  Biso   1.000  H
  H124     1.0000 0.19800  0.26880  0.13810  Biso   1.000  H
  H125     1.0000 0.30200  0.76880  0.63810  Biso   1.000  H
  H126     1.0000 0.80200  0.76880  0.13810  Biso   1.000  H
  H127     1.0000 0.30200  0.73120  0.36190  Biso   1.000  H
  H128     1.0000 0.80200  0.73120  0.86190  Biso   1.000  H
  H129     1.0000 0.79160  0.28110  0.39780  Biso   1.000  H
  H130     1.0000 0.29160  0.28110  0.89780  Biso   1.000  H
  H131     1.0000 0.79160  0.21890  0.60220  Biso   1.000  H
  H132     1.0000 0.29160  0.21890  0.10220  Biso   1.000  H
  H133     1.0000 0.20840  0.71890  0.60220  Biso   1.000  H
  H134     1.0000 0.70840  0.71890  0.10220  Biso   1.000  H
  H135     1.0000 0.20840  0.78110  0.39780  Biso   1.000  H
  H136     1.0000 0.70840  0.78110  0.89780  Biso   1.000  H
  N73      1.0000 0.71740  0.16270  0.41980  Biso   1.000  N
  N74      1.0000 0.21740  0.16270  0.91980  Biso   1.000  N
  N75      1.0000 0.71740  0.33730  0.58020  Biso   1.000  N
  N76      1.0000 0.21740  0.33730  0.08020  Biso   1.000  N
  N77      1.0000 0.28260  0.83730  0.58020  Biso   1.000  N
  N78      1.0000 0.78260  0.83730  0.08020  Biso   1.000  N
  N79      1.0000 0.28260  0.66270  0.41980  Biso   1.000  N
  N80      1.0000 0.78260  0.66270  0.91980  Biso   1.000  N
  O1       1.0000 0.63858  0.08155  0.47651  Biso   1.000  O
  O2       1.0000 0.13858  0.08155  0.97651  Biso   1.000  O
  O3       1.0000 0.63858  0.41845  0.52349  Biso   1.000  O
  O4       1.0000 0.13858  0.41845  0.02349  Biso   1.000  O
  O5       1.0000 0.36142  0.91845  0.52349  Biso   1.000  O
  O6       1.0000 0.86142  0.91845  0.02349  Biso   1.000  O
  O7       1.0000 0.36142  0.58155  0.47651  Biso   1.000  O
  O8       1.0000 0.86142  0.58155  0.97651  Biso   1.000  O
  C121     1.0000 0.66780  0.07710  0.43470  Biso   1.000  C
  C122     1.0000 0.16780  0.07710  0.93470  Biso   1.000  C
  C123     1.0000 0.66780  0.42290  0.56530  Biso   1.000  C
  C124     1.0000 0.16780  0.42290  0.06530  Biso   1.000  C
  C125     1.0000 0.33220  0.92290  0.56530  Biso   1.000  C
  C126     1.0000 0.83220  0.92290  0.06530  Biso   1.000  C
  C127     1.0000 0.33220  0.57710  0.43470  Biso   1.000  C
  C128     1.0000 0.83220  0.57710  0.93470  Biso   1.000  C
  H137     1.0000 0.62230  0.04500  0.40890  Biso   1.000  H
  H138     1.0000 0.12230  0.04500  0.90890  Biso   1.000  H
  H139     1.0000 0.62230  0.45500  0.59110  Biso   1.000  H
  H140     1.0000 0.12230  0.45500  0.09110  Biso   1.000  H
  H141     1.0000 0.37770  0.95500  0.59110  Biso   1.000  H
  H142     1.0000 0.87770  0.95500  0.09110  Biso   1.000  H
  H143     1.0000 0.37770  0.54500  0.40890  Biso   1.000  H
  H144     1.0000 0.87770  0.54500  0.90890  Biso   1.000  H
  C129     1.0000 0.79390  0.10320  0.37060  Biso   1.000  C
  C130     1.0000 0.29390  0.10320  0.87060  Biso   1.000  C
  C131     1.0000 0.79390  0.39680  0.62940  Biso   1.000  C
  C132     1.0000 0.29390  0.39680  0.12940  Biso   1.000  C
  C133     1.0000 0.20610  0.89680  0.62940  Biso   1.000  C
  C134     1.0000 0.70610  0.89680  0.12940  Biso   1.000  C
  C135     1.0000 0.20610  0.60320  0.37060  Biso   1.000  C
  C136     1.0000 0.70610  0.60320  0.87060  Biso   1.000  C
  H145     1.0000 0.73530  0.07570  0.34880  Biso   1.000  H
  H146     1.0000 0.23530  0.07570  0.84880  Biso   1.000  H
  H147     1.0000 0.73530  0.42430  0.65120  Biso   1.000  H
  H148     1.0000 0.23530  0.42430  0.15120  Biso   1.000  H
  H149     1.0000 0.26470  0.92430  0.65120  Biso   1.000  H
  H150     1.0000 0.76470  0.92430  0.15120  Biso   1.000  H
  H151     1.0000 0.26470  0.57570  0.34880  Biso   1.000  H
  H152     1.0000 0.76470  0.57570  0.84880  Biso   1.000  H
  H153     1.0000 0.85370  0.05520  0.36390  Biso   1.000  H
  H154     1.0000 0.35370  0.05520  0.86390  Biso   1.000  H
  H155     1.0000 0.85370  0.44480  0.63610  Biso   1.000  H
  H156     1.0000 0.35370  0.44480  0.13610  Biso   1.000  H
  H157     1.0000 0.14630  0.94480  0.63610  Biso   1.000  H
  H158     1.0000 0.64630  0.94480  0.13610  Biso   1.000  H
  H159     1.0000 0.14630  0.55520  0.36390  Biso   1.000  H
  H160     1.0000 0.64630  0.55520  0.86390  Biso   1.000  H
  H161     1.0000 0.81490  0.17120  0.36480  Biso   1.000  H
  H162     1.0000 0.31490  0.17120  0.86480  Biso   1.000  H
  H163     1.0000 0.81490  0.32880  0.63520  Biso   1.000  H
  H164     1.0000 0.31490  0.32880  0.13520  Biso   1.000  H
  H165     1.0000 0.18510  0.82880  0.63520  Biso   1.000  H
  H166     1.0000 0.68510  0.82880  0.13520  Biso   1.000  H
  H167     1.0000 0.18510  0.67120  0.36480  Biso   1.000  H
  H168     1.0000 0.68510  0.67120  0.86480  Biso   1.000  H
  C137     1.0000 0.84080  0.14910  0.46060  Biso   1.000  C
  C138     1.0000 0.34080  0.14910  0.96060  Biso   1.000  C
  C139     1.0000 0.84080  0.35090  0.53940  Biso   1.000  C
  C140     1.0000 0.34080  0.35090  0.03940  Biso   1.000  C
  C141     1.0000 0.15920  0.85090  0.53940  Biso   1.000  C
  C142     1.0000 0.65920  0.85090  0.03940  Biso   1.000  C
  C143     1.0000 0.15920  0.64910  0.46060  Biso   1.000  C
  C144     1.0000 0.65920  0.64910  0.96060  Biso   1.000  C
  H169     1.0000 0.80990  0.15210  0.49300  Biso   1.000  H
  H170     1.0000 0.30990  0.15210  0.99300  Biso   1.000  H
  H171     1.0000 0.80990  0.34790  0.50700  Biso   1.000  H
  H172     1.0000 0.30990  0.34790  0.00700  Biso   1.000  H
  H173     1.0000 0.19010  0.84790  0.50700  Biso   1.000  H
  H174     1.0000 0.69010  0.84790  0.00700  Biso   1.000  H
  H175     1.0000 0.19010  0.65210  0.49300  Biso   1.000  H
  H176     1.0000 0.69010  0.65210  0.99300  Biso   1.000  H
  H177     1.0000 0.86630  0.21820  0.45850  Biso   1.000  H
  H178     1.0000 0.36630  0.21820  0.95850  Biso   1.000  H
  H179     1.0000 0.86630  0.28180  0.54150  Biso   1.000  H
  H180     1.0000 0.36630  0.28180  0.04150  Biso   1.000  H
  H181     1.0000 0.13370  0.78180  0.54150  Biso   1.000  H
  H182     1.0000 0.63370  0.78180  0.04150  Biso   1.000  H
  H183     1.0000 0.13370  0.71820  0.45850  Biso   1.000  H
  H184     1.0000 0.63370  0.71820  0.95850  Biso   1.000  H
  H185     1.0000 0.89970  0.09990  0.45550  Biso   1.000  H
  H186     1.0000 0.39970  0.09990  0.95550  Biso   1.000  H
  H187     1.0000 0.89970  0.40010  0.54450  Biso   1.000  H
  H188     1.0000 0.39970  0.40010  0.04450  Biso   1.000  H
  H189     1.0000 0.10030  0.90010  0.54450  Biso   1.000  H
  H190     1.0000 0.60030  0.90010  0.04450  Biso   1.000  H
  H191     1.0000 0.10030  0.59990  0.45550  Biso   1.000  H
  H192     1.0000 0.60030  0.59990  0.95550  Biso   1.000  H
  N81      1.0000 0.76040  0.11460  0.42250  Biso   1.000  N
  N82      1.0000 0.26040  0.11460  0.92250  Biso   1.000  N
  N83      1.0000 0.76040  0.38540  0.57750  Biso   1.000  N
  N84      1.0000 0.26040  0.38540  0.07750  Biso   1.000  N
  N85      1.0000 0.23960  0.88540  0.57750  Biso   1.000  N
  N86      1.0000 0.73960  0.88540  0.07750  Biso   1.000  N
  N87      1.0000 0.23960  0.61460  0.42250  Biso   1.000  N
  N88      1.0000 0.73960  0.61460  0.92250  Biso   1.000  N
